12009
     RDKit          3D

 37 38  0  0  0  0  0  0  0  0999 V2000
   -0.7719    1.3510   -0.0699 O   0  0  0  0  0  0  0  0  0  0  0  0
   -3.3847   -2.4598   -0.1701 O   0  0  0  0  0  0  0  0  0  0  0  0
   -3.0563    1.5275   -0.1529 N   0  0  0  0  0  0  0  0  0  0  0  0
   -2.0193   -0.5883    0.0137 N   0  0  0  0  0  0  0  0  09001  0  0
   -1.8715    0.7939   -0.0629 C   0  0  0  0  0  0  0  0  0  0  0  0
   -4.2888    0.9303   -0.2496 C   0  0  0  0  0  0  0  0  0  0  0  0
   -2.9853    2.9814   -0.2221 C   0  0  0  0  0  0  0  0  0  0  0  0
   -4.4256   -0.3923   -0.2440 C   0  0  0  0  0  0  0  0  0  0  0  0
   -3.2297   -1.2413   -0.1295 C   0  0  0  0  0  0  0  0  0  0  0  0
   -5.1541    1.5810   -0.3394 H   0  0  0  0  0  0  0  0  0  0  0  0
   -2.0223    3.3560    0.1358 H   0  0  0  0  0  0  0  0  0  0  0  0
   -3.7763    3.4207    0.3944 H   0  0  0  0  0  0  0  0  0  0  0  0
   -3.1183    3.2875   -1.2645 H   0  0  0  0  0  0  0  0  0  0  0  0
   -5.3836   -0.8880   -0.3272 H   0  0  0  0  0  0  0  0  0  0  0  0
    4.2945    1.3408    0.8898 P   0  0  0  0  0  0  0  0  0  0  0  0
   -0.0669   -1.0570    1.2839 O   0  0  0  0  0  0  0  0  0  0  0  0
    1.3823   -3.2524   -0.3766 O   0  0  0  0  0  0  0  0  0  0  0  0
   -0.2586   -2.1958   -2.1704 O   0  0  0  0  0  0  0  0  0  0  0  0
    3.4191    0.0027    0.8636 O   0  0  0  0  0  0  0  0  0  0  0  0
    4.0102    2.0359   -0.5184 O   0  0  0  0  0  0  0  0  0  0  0  0
    5.7931    0.8452    0.6767 O   0  0  0  0  0  0  0  0  0  0  0  0
    4.0779    2.2733    2.0283 O   0  0  0  0  0  0  0  0  0  0  0  0
    1.4177   -1.8130   -0.4425 C   0  0  2  0  0  0  0  0  0  0  0  0
    1.3335   -1.1993    0.9591 C   0  0  1  0  0  0  0  0  0  0  0  0
    0.1209   -1.3497   -1.0866 C   0  0  2  0  0  0  0  0  0  0  0  0
   -0.8339   -1.4211    0.1154 C   0  0  2  0  0  0  0  0  09002  0  0
    2.0201    0.1631    1.0481 C   0  0  0  0  0  0  0  0  0  0  0  0
    2.3063   -1.5370   -1.0171 H   0  0  0  0  0  0  0  0  0  0  0  0
    1.7768   -1.8770    1.6979 H   0  0  0  0  0  0  0  0  0  0  0  0
    0.2362   -0.3341   -1.4738 H   0  0  0  0  0  0  0  0  0  0  0  0
   -1.1322   -2.4651    0.2691 H   0  0  0  0  0  0  0  0  0  0  0  0
    1.8292    0.6123    2.0291 H   0  0  0  0  0  0  0  0  0  0  0  0
    1.6358    0.8522    0.2911 H   0  0  0  0  0  0  0  0  0  0  0  0
    2.1919   -3.5401    0.0844 H   0  0  0  0  0  0  0  0  0  0  0  0
   -0.0146   -3.1023   -1.8875 H   0  0  0  0  0  0  0  0  0  0  0  0
    4.0623    3.0062   -0.4183 H   0  0  0  0  0  0  0  0  0  0  0  0
    5.8862    0.3527   -0.1571 H   0  0  0  0  0  0  0  0  0  0  0  0
  1  5  2  0
  2  9  2  0
  3  5  1  0
  3  6  1  0
  3  7  1  0
  4  5  1  0
  4  9  1  0
  6  8  2  0
  6 10  1  0
  7 11  1  0
  7 12  1  0
  7 13  1  0
  8  9  1  0
  8 14  1  0
 15 19  1  0
 15 20  1  0
 15 21  1  0
 15 22  2  0
 16 24  1  0
 16 26  1  0
 17 23  1  0
 17 34  1  0
 18 25  1  0
 18 35  1  0
 19 27  1  0
 20 36  1  0
 21 37  1  0
 23 24  1  0
 23 25  1  0
 23 28  1  6
 24 27  1  0
 24 29  1  1
 25 26  1  0
 25 30  1  6
 26 31  1  1
 27 32  1  0
 27 33  1  0
  4 26  1  0
M  END
$$$$
