12009
     RDKit          3D

 32 33  0  0  0  0  0  0  0  0999 V2000
    1.4923   -1.1591   -1.2956 O   0  0  0  0  0  0  0  0  0  0  0  0
    0.5177    2.8845    0.4482 O   0  0  0  0  0  0  0  0  0  0  0  0
    2.9655   -0.2033    0.1713 N   0  0  0  0  0  0  0  0  0  0  0  0
    0.7572    0.6116   -0.0112 N   0  0  0  0  0  0  0  0  09001  0  0
    1.7116   -0.3062   -0.4331 C   0  0  0  0  0  0  0  0  0  0  0  0
    3.3052    0.8552    0.9769 C   0  0  0  0  0  0  0  0  0  0  0  0
    3.9908   -1.1892   -0.1471 C   0  0  0  0  0  0  0  0  0  0  0  0
    2.4630    1.8639    1.1786 C   0  0  0  0  0  0  0  0  0  0  0  0
    1.1505    1.8339    0.5128 C   0  0  0  0  0  0  0  0  0  0  0  0
    4.3000    0.8584    1.4133 H   0  0  0  0  0  0  0  0  0  0  0  0
    3.5462   -2.1213   -0.5076 H   0  0  0  0  0  0  0  0  0  0  0  0
    4.6375   -0.7793   -0.9291 H   0  0  0  0  0  0  0  0  0  0  0  0
    4.5850   -1.4125    0.7449 H   0  0  0  0  0  0  0  0  0  0  0  0
    2.7087    2.7374    1.7674 H   0  0  0  0  0  0  0  0  0  0  0  0
   -1.5067    0.9330    0.5227 O   0  0  0  0  0  0  0  0  0  0  0  0
   -3.0859    0.2061   -2.0948 O   0  0  0  0  0  0  0  0  0  0  0  0
   -0.8090   -1.1022   -2.4025 O   0  0  0  0  0  0  0  0  0  0  0  0
   -3.1061    0.2430    2.7096 O   0  0  0  0  0  0  0  0  0  0  0  0
   -2.6503   -0.5539   -0.9592 C   0  0  2  0  0  0  0  0  0  0  0  0
   -2.7797    0.2718    0.3103 C   0  0  1  0  0  0  0  0  0  0  0  0
   -1.1519   -0.7773   -1.0545 C   0  0  2  0  0  0  0  0  0  0  0  0
   -0.6009    0.5722   -0.5502 C   0  0  2  0  0  0  0  0  09002  0  0
   -3.0432   -0.5857    1.5493 C   0  0  0  0  0  0  0  0  0  0  0  0
   -3.2297   -1.4816   -0.9532 H   0  0  0  0  0  0  0  0  0  0  0  0
   -3.5376    1.0582    0.2249 H   0  0  0  0  0  0  0  0  0  0  0  0
   -0.8648   -1.6025   -0.3909 H   0  0  0  0  0  0  0  0  0  0  0  0
   -0.6719    1.3370   -1.3350 H   0  0  0  0  0  0  0  0  0  0  0  0
   -2.2365   -1.3071    1.7144 H   0  0  0  0  0  0  0  0  0  0  0  0
   -3.9897   -1.1272    1.4636 H   0  0  0  0  0  0  0  0  0  0  0  0
   -2.6121   -0.1845   -2.8597 H   0  0  0  0  0  0  0  0  0  0  0  0
    0.1563   -1.2958   -2.3784 H   0  0  0  0  0  0  0  0  0  0  0  0
   -2.4118    0.9224    2.5941 H   0  0  0  0  0  0  0  0  0  0  0  0
  1  5  2  0
  2  9  2  0
  3  5  1  0
  3  6  1  0
  3  7  1  0
  4  5  1  0
  4  9  1  0
  6  8  2  0
  6 10  1  0
  7 11  1  0
  7 12  1  0
  7 13  1  0
  8  9  1  0
  8 14  1  0
 15 20  1  0
 15 22  1  0
 16 19  1  0
 16 30  1  0
 17 21  1  0
 17 31  1  0
 18 23  1  0
 18 32  1  0
 19 20  1  0
 19 21  1  0
 19 24  1  1
 20 23  1  0
 20 25  1  6
 21 22  1  0
 21 26  1  1
 22 27  1  6
 23 28  1  0
 23 29  1  0
  4 22  1  0
M  END
$$$$
