72200
  -OEChem-02192616123D

 34 36  0     1  0  0  0  0  0999 V2000
    2.2111   -0.4172   -0.9802 O   0  0  0  0  0  0  0  0  0  0  0  0
    1.2170    2.1589    1.3212 O   0  0  0  0  0  0  0  0  0  0  0  0
    3.3781    2.3211   -0.3185 O   0  0  0  0  0  0  0  0  0  0  0  0
    4.1925   -2.3569   -0.5628 O   0  0  0  0  0  0  0  0  0  0  0  0
    0.0010   -0.4056   -0.1168 N   0  0  0  0  0  0  0  0  0  0  0  0
   -1.2625   -2.1878    0.3369 N   0  0  0  0  0  0  0  0  0  0  0  0
   -1.7343    1.2708   -0.4011 N   0  0  0  0  0  0  0  0  0  0  0  0
   -3.9559    0.3124   -0.0811 N   0  0  0  0  0  0  0  0  0  0  0  0
   -4.2954   -1.9973    0.4451 N   0  0  0  0  0  0  0  0  0  0  0  0
   -3.6644    2.5797   -0.5926 N   0  0  0  0  0  0  0  0  0  0  0  0
    1.8316    0.9536    0.9134 C   0  0  1  0  0  0  0  0  0  0  0  0
    1.2002    0.3950   -0.3527 C   0  0  1  0  0  0  0  0  0  0  0  0
    3.2711    1.1397    0.4758 C   0  0  1  0  0  0  0  0  0  0  0  0
    3.4991   -0.0757   -0.4174 C   0  0  1  0  0  0  0  0  0  0  0  0
    4.0245   -1.2832    0.3463 C   0  0  0  0  0  0  0  0  0  0  0  0
   -1.2948    0.0286   -0.1489 C   0  0  0  0  0  0  0  0  0  0  0  0
   -0.0330   -1.7440    0.1785 C   0  0  0  0  0  0  0  0  0  0  0  0
   -2.0613   -1.0904    0.1351 C   0  0  0  0  0  0  0  0  0  0  0  0
   -3.4414   -0.9166    0.1646 C   0  0  0  0  0  0  0  0  0  0  0  0
   -3.0832    1.3150   -0.3448 C   0  0  0  0  0  0  0  0  0  0  0  0
    1.7740    0.2338    1.7381 H   0  0  0  0  0  0  0  0  0  0  0  0
    0.9199    1.1843   -1.0611 H   0  0  0  0  0  0  0  0  0  0  0  0
    3.9708    1.2330    1.3112 H   0  0  0  0  0  0  0  0  0  0  0  0
    4.1605    0.1468   -1.2625 H   0  0  0  0  0  0  0  0  0  0  0  0
    3.3294   -1.6126    1.1248 H   0  0  0  0  0  0  0  0  0  0  0  0
    4.9928   -1.0671    0.8071 H   0  0  0  0  0  0  0  0  0  0  0  0
    1.3197    2.8067    0.6034 H   0  0  0  0  0  0  0  0  0  0  0  0
    4.3004    2.3849   -0.6202 H   0  0  0  0  0  0  0  0  0  0  0  0
    0.8621   -2.3439    0.2709 H   0  0  0  0  0  0  0  0  0  0  0  0
    3.3265   -2.5368   -0.9672 H   0  0  0  0  0  0  0  0  0  0  0  0
   -3.9140   -2.9152    0.6294 H   0  0  0  0  0  0  0  0  0  0  0  0
   -5.2948   -1.8454    0.4612 H   0  0  0  0  0  0  0  0  0  0  0  0
   -3.0671    3.3693   -0.7954 H   0  0  0  0  0  0  0  0  0  0  0  0
   -4.6698    2.6783   -0.5646 H   0  0  0  0  0  0  0  0  0  0  0  0
  1 12  1  0  0  0  0
  1 14  1  0  0  0  0
  2 11  1  0  0  0  0
  2 27  1  0  0  0  0
  3 13  1  0  0  0  0
  3 28  1  0  0  0  0
  4 15  1  0  0  0  0
  4 30  1  0  0  0  0
  5 12  1  0  0  0  0
  5 16  1  0  0  0  0
  5 17  1  0  0  0  0
  6 17  2  0  0  0  0
  6 18  1  0  0  0  0
  7 16  2  0  0  0  0
  7 20  1  0  0  0  0
  8 19  1  0  0  0  0
  8 20  2  0  0  0  0
  9 19  1  0  0  0  0
  9 31  1  0  0  0  0
  9 32  1  0  0  0  0
 10 20  1  0  0  0  0
 10 33  1  0  0  0  0
 10 34  1  0  0  0  0
 11 12  1  0  0  0  0
 11 13  1  0  0  0  0
 11 21  1  0  0  0  0
 12 22  1  0  0  0  0
 13 14  1  0  0  0  0
 13 23  1  0  0  0  0
 14 15  1  0  0  0  0
 14 24  1  0  0  0  0
 15 25  1  0  0  0  0
 15 26  1  0  0  0  0
 16 18  1  0  0  0  0
 17 29  1  0  0  0  0
 18 19  2  0  0  0  0
M  END
> <PUBCHEM_COMPOUND_CID>
72200

> <PUBCHEM_CONFORMER_RMSD>
0.6

> <PUBCHEM_CONFORMER_DIVERSEORDER>
3
6
12
11
9
13
2
1
15
5
7
16
8
10
4
14

> <PUBCHEM_MMFF94_PARTIAL_CHARGES>
28
1 -0.56
10 -0.9
11 0.28
12 0.54
13 0.28
14 0.28
15 0.28
16 0.11
17 0.04
18 0.23
19 0.41
2 -0.68
20 0.72
27 0.4
28 0.4
29 0.15
3 -0.68
30 0.4
31 0.4
32 0.4
33 0.4
34 0.4
4 -0.68
5 0.05
6 -0.57
7 -0.57
8 -0.62
9 -0.9

> <PUBCHEM_EFFECTIVE_ROTOR_COUNT>
3

> <PUBCHEM_PHARMACOPHORE_FEATURES>
15
1 1 acceptor
1 10 donor
1 2 acceptor
1 2 donor
1 3 acceptor
1 3 donor
1 4 acceptor
1 4 donor
1 9 cation
1 9 donor
3 5 6 17 cation
4 7 8 10 20 cation
5 1 11 12 13 14 rings
5 5 6 16 17 18 rings
6 7 8 16 18 19 20 rings

> <PUBCHEM_HEAVY_ATOM_COUNT>
20

> <PUBCHEM_ATOM_DEF_STEREO_COUNT>
4

> <PUBCHEM_ATOM_UDEF_STEREO_COUNT>
0

> <PUBCHEM_BOND_DEF_STEREO_COUNT>
0

> <PUBCHEM_BOND_UDEF_STEREO_COUNT>
0

> <PUBCHEM_ISOTOPIC_ATOM_COUNT>
0

> <PUBCHEM_COMPONENT_COUNT>
1

> <PUBCHEM_CACTVS_TAUTO_COUNT>
9

> <PUBCHEM_CONFORMER_ID>
00011A0800000003

> <PUBCHEM_MMFF94_ENERGY>
52.112

> <PUBCHEM_FEATURE_SELFOVERLAP>
76.273

> <PUBCHEM_SHAPE_FINGERPRINT>
10498660 4 18259977193674442661
10608611 8 18411979203988107400
10646746 165 18409164398380975956
1100329 8 16539330212758844080
11405975 8 18412546470531211617
11578080 2 13972848182914147082
12403259 226 18412541046219462753
12403259 415 18411700984739018929
12403260 363 18411408514714491983
12507560 40 18411976988264744784
13134695 92 17489294249380501912
13140716 1 18341615871479864201
13464514 151 17981605966410996557
13675066 3 18272360958688317114
14866123 147 16830664544939053242
15196674 1 18410011039498271877
15219456 202 18342737446475679364
15442244 35 18410011005576467864
16945 1 18124021584039778619
17492 89 18409167739955982450
17804303 29 18408889507779196590
18186145 218 18272661120719494936
19049666 15 18412823611938538200
19591789 44 18409729556153815955
200 152 17561357383846821439
20510252 161 18411139181884679377
20645477 70 17917722318155417846
21065199 12 18410853295686255848
23402539 116 18270952453869604100
23559900 14 18341892940579394326
3004659 81 18043257839009010374
3286 77 18413386553122735319
335352 9 18193838145715384324
350125 39 18336834108722530547
4214541 1 18408604742746533468
495365 180 17560221601246637096
5104073 3 18410293614028815747
633830 44 18335975402730773023
69090 78 18201435934562652591
7364860 26 18122903131918028807
77779 3 18408605868075463748
81228 2 18044368568362707003
9709674 26 18409452526520991058

> <PUBCHEM_SHAPE_MULTIPOLES>
358.23
8.38
2.59
0.83
0.08
0.25
-0.09
-0.76
0.44
0.19
-0.09
-0.33
0.18
1.02

> <PUBCHEM_SHAPE_SELFOVERLAP>
779.517

> <PUBCHEM_SHAPE_VOLUME>
192.2

> <PUBCHEM_COORDINATE_TYPE>
2
5
10

$$$$
