30976
     RDKit          3D

 39 41  0  0  0  0  0  0  0  0999 V2000
   -1.4226   -0.6237    0.7000 N   0  0  0  0  0  0  0  0  09001  0  0
   -2.5489   -0.4036    2.6000 N   0  0  0  0  0  0  0  0  0  0  0  0
   -4.7272   -0.0782    1.6184 N   0  0  0  0  0  0  0  0  0  0  0  0
   -4.7456   -0.1235   -0.7743 N   0  0  0  0  0  0  0  0  0  0  0  0
   -2.8575   -0.5497   -2.1091 N   0  0  0  0  0  0  0  0  0  0  0  0
   -6.6861    0.2567    0.4366 N   0  0  0  0  0  0  0  0  0  0  0  0
   -2.7364   -0.4630    0.3416 C   0  0  0  0  0  0  0  0  0  0  0  0
   -3.4079   -0.3086    1.5387 C   0  0  0  0  0  0  0  0  0  0  0  0
   -3.4334   -0.3823   -0.8441 C   0  0  0  0  0  0  0  0  0  0  0  0
   -1.3625   -0.6002    2.0655 C   0  0  0  0  0  0  0  0  0  0  0  0
   -5.3288   -0.0046    0.4332 C   0  0  0  0  0  0  0  0  0  0  0  0
   -0.4390   -0.7207    2.6195 H   0  0  0  0  0  0  0  0  0  0  0  0
   -2.5652   -1.5213   -2.2088 H   0  0  0  0  0  0  0  0  0  0  0  0
   -3.6241   -0.3868   -2.7679 H   0  0  0  0  0  0  0  0  0  0  0  0
   -6.9565    0.7216   -0.4178 H   0  0  0  0  0  0  0  0  0  0  0  0
   -6.9459    0.6978    1.3090 H   0  0  0  0  0  0  0  0  0  0  0  0
    5.5733    0.3954    1.2034 P   0  0  0  0  0  0  0  0  0  0  0  0
    0.8856   -1.1231    0.4585 O   0  0  0  0  0  0  0  0  0  0  0  0
    2.0860    1.7184   -1.4334 O   0  0  0  0  0  0  0  0  0  0  0  0
    0.0086    0.4245   -2.3756 O   0  0  0  0  0  0  0  0  0  0  0  0
    4.2128    0.4268    0.3684 O   0  0  0  0  0  0  0  0  0  0  0  0
    6.5092    1.4229    0.4252 O   0  0  0  0  0  0  0  0  0  0  0  0
    6.2503   -0.9960    0.8132 O   0  0  0  0  0  0  0  0  0  0  0  0
    5.4605    0.5969    2.6733 O   0  0  0  0  0  0  0  0  0  0  0  0
    1.3602    0.9972   -0.4477 C   0  0  2  0  0  0  0  0  0  0  0  0
    1.9699   -0.3559   -0.0985 C   0  0  1  0  0  0  0  0  0  0  0  0
   -0.0251    0.6124   -0.9478 C   0  0  2  0  0  0  0  0  0  0  0  0
   -0.3132   -0.7152   -0.2307 C   0  0  2  0  0  0  0  0  09002  0  0
    3.1148   -0.2817    0.9076 C   0  0  0  0  0  0  0  0  0  0  0  0
    1.2679    1.6141    0.4539 H   0  0  0  0  0  0  0  0  0  0  0  0
    2.3260   -0.8550   -1.0095 H   0  0  0  0  0  0  0  0  0  0  0  0
   -0.7499    1.4091   -0.7493 H   0  0  0  0  0  0  0  0  0  0  0  0
   -0.5561   -1.5188   -0.9352 H   0  0  0  0  0  0  0  0  0  0  0  0
    3.4271   -1.2967    1.1803 H   0  0  0  0  0  0  0  0  0  0  0  0
    2.7816    0.2073    1.8304 H   0  0  0  0  0  0  0  0  0  0  0  0
    1.7170    1.4348   -2.2963 H   0  0  0  0  0  0  0  0  0  0  0  0
   -0.9285    0.3083   -2.6475 H   0  0  0  0  0  0  0  0  0  0  0  0
    6.4592    1.2778   -0.5363 H   0  0  0  0  0  0  0  0  0  0  0  0
    6.9504   -1.2134    1.4573 H   0  0  0  0  0  0  0  0  0  0  0  0
  1  7  1  0
  1 10  1  0
  2  8  1  0
  2 10  2  0
  3  8  2  0
  3 11  1  0
  4  9  1  0
  4 11  2  0
  5  9  1  0
  5 13  1  0
  5 14  1  0
  6 11  1  0
  6 15  1  0
  6 16  1  0
  7  8  1  0
  7  9  2  0
 10 12  1  0
 17 21  1  0
 17 22  1  0
 17 23  1  0
 17 24  2  0
 18 26  1  0
 18 28  1  0
 19 25  1  0
 19 36  1  0
 20 27  1  0
 20 37  1  0
 21 29  1  0
 22 38  1  0
 23 39  1  0
 25 26  1  0
 25 27  1  0
 25 30  1  1
 26 29  1  0
 26 31  1  6
 27 28  1  0
 27 32  1  6
 28 33  1  6
 29 34  1  0
 29 35  1  0
  1 28  1  0
M  END
$$$$
