92887
  -OEChem-04062613293D

 32 33  0     1  0  0  0  0  0999 V2000
   -1.2489   -0.3217    1.2441 O   0  0  0  0  0  0  0  0  0  0  0  0
   -1.1708    2.2395   -1.2646 O   0  0  0  0  0  0  0  0  0  0  0  0
   -3.2709    1.7239    0.3974 O   0  0  0  0  0  0  0  0  0  0  0  0
   -3.7548   -2.0906   -0.7168 O   0  0  0  0  0  0  0  0  0  0  0  0
    0.1905   -2.0117    0.1161 O   0  0  0  0  0  0  0  0  0  0  0  0
    4.6340   -0.9614   -0.4065 O   0  0  0  0  0  0  0  0  0  0  0  0
    0.8012    0.2431    0.2731 N   0  0  0  0  0  0  0  0  0  0  0  0
    2.3989   -1.4816   -0.1425 N   0  0  0  0  0  0  0  0  0  0  0  0
   -1.3154    0.9237   -0.7708 C   0  0  1  0  0  0  0  0  0  0  0  0
   -0.5399    0.6933    0.5149 C   0  0  1  0  0  0  0  0  0  0  0  0
   -2.7355    0.6245   -0.3389 C   0  0  1  0  0  0  0  0  0  0  0  0
   -2.5375   -0.5354    0.6273 C   0  0  1  0  0  0  0  0  0  0  0  0
   -2.5149   -1.8942   -0.0599 C   0  0  0  0  0  0  0  0  0  0  0  0
    1.8590    1.1731    0.2212 C   0  0  0  0  0  0  0  0  0  0  0  0
    1.0640   -1.1410    0.0858 C   0  0  0  0  0  0  0  0  0  0  0  0
    3.1293    0.8030   -0.0013 C   0  0  0  0  0  0  0  0  0  0  0  0
    1.5378    2.6299    0.4247 C   0  0  0  0  0  0  0  0  0  0  0  0
    3.4739   -0.6164   -0.2034 C   0  0  0  0  0  0  0  0  0  0  0  0
   -1.0178    0.2179   -1.5564 H   0  0  0  0  0  0  0  0  0  0  0  0
   -0.5502    1.5744    1.1609 H   0  0  0  0  0  0  0  0  0  0  0  0
   -3.4134    0.4295   -1.1733 H   0  0  0  0  0  0  0  0  0  0  0  0
   -3.2997   -0.5309    1.4150 H   0  0  0  0  0  0  0  0  0  0  0  0
   -2.3438   -2.7022    0.6582 H   0  0  0  0  0  0  0  0  0  0  0  0
   -1.7634   -1.9474   -0.8475 H   0  0  0  0  0  0  0  0  0  0  0  0
   -0.3787    2.2512   -1.8282 H   0  0  0  0  0  0  0  0  0  0  0  0
   -2.7478    1.8495    1.2065 H   0  0  0  0  0  0  0  0  0  0  0  0
    3.9428    1.5193   -0.0411 H   0  0  0  0  0  0  0  0  0  0  0  0
    1.1090    2.8123    1.4149 H   0  0  0  0  0  0  0  0  0  0  0  0
    0.8811    3.0291   -0.3454 H   0  0  0  0  0  0  0  0  0  0  0  0
    2.4479    3.2417    0.3817 H   0  0  0  0  0  0  0  0  0  0  0  0
    2.5986   -2.4687   -0.2778 H   0  0  0  0  0  0  0  0  0  0  0  0
   -3.7213   -2.9661   -1.1387 H   0  0  0  0  0  0  0  0  0  0  0  0
  1 10  1  0  0  0  0
  1 12  1  0  0  0  0
  2  9  1  0  0  0  0
  2 25  1  0  0  0  0
  3 11  1  0  0  0  0
  3 26  1  0  0  0  0
  4 13  1  0  0  0  0
  4 32  1  0  0  0  0
  5 15  2  0  0  0  0
  6 18  2  0  0  0  0
  7 10  1  0  0  0  0
  7 14  1  0  0  0  0
  7 15  1  0  0  0  0
  8 15  1  0  0  0  0
  8 18  1  0  0  0  0
  8 31  1  0  0  0  0
  9 10  1  0  0  0  0
  9 11  1  0  0  0  0
  9 19  1  0  0  0  0
 10 20  1  0  0  0  0
 11 12  1  0  0  0  0
 11 21  1  0  0  0  0
 12 13  1  0  0  0  0
 12 22  1  0  0  0  0
 13 23  1  0  0  0  0
 13 24  1  0  0  0  0
 14 16  2  0  0  0  0
 14 17  1  0  0  0  0
 16 18  1  0  0  0  0
 16 27  1  0  0  0  0
 17 28  1  0  0  0  0
 17 29  1  0  0  0  0
 17 30  1  0  0  0  0
M  END
> <PUBCHEM_COMPOUND_CID>
92887

> <PUBCHEM_CONFORMER_RMSD>
0.6

> <PUBCHEM_CONFORMER_DIVERSEORDER>
2
5
3
7
6
1
4

> <PUBCHEM_MMFF94_PARTIAL_CHARGES>
23
1 -0.56
10 0.58
11 0.28
12 0.28
13 0.28
14 -0.03
15 0.69
16 -0.14
17 0.14
18 0.62
2 -0.68
25 0.4
26 0.4
27 0.15
3 -0.68
31 0.37
32 0.4
4 -0.68
5 -0.57
6 -0.57
7 -0.47
8 -0.49
9 0.28

> <PUBCHEM_EFFECTIVE_ROTOR_COUNT>
3

> <PUBCHEM_PHARMACOPHORE_FEATURES>
12
1 1 acceptor
1 2 acceptor
1 2 donor
1 3 acceptor
1 3 donor
1 4 acceptor
1 4 donor
1 5 acceptor
1 6 acceptor
1 8 donor
5 1 9 10 11 12 rings
6 7 8 14 15 16 18 rings

> <PUBCHEM_HEAVY_ATOM_COUNT>
18

> <PUBCHEM_ATOM_DEF_STEREO_COUNT>
4

> <PUBCHEM_ATOM_UDEF_STEREO_COUNT>
0

> <PUBCHEM_BOND_DEF_STEREO_COUNT>
0

> <PUBCHEM_BOND_UDEF_STEREO_COUNT>
0

> <PUBCHEM_ISOTOPIC_ATOM_COUNT>
0

> <PUBCHEM_COMPONENT_COUNT>
1

> <PUBCHEM_CACTVS_TAUTO_COUNT>
3

> <PUBCHEM_CONFORMER_ID>
00016AD700000002

> <PUBCHEM_MMFF94_ENERGY>
58.777

> <PUBCHEM_FEATURE_SELFOVERLAP>
60.933

> <PUBCHEM_SHAPE_FINGERPRINT>
10062212 137 18262231123617748978
10608611 8 18409727378504942704
10967382 1 18266741268532210954
11132069 177 18411979152770052066
11769659 78 18272088348181233355
12403259 226 18410006676101643064
12596599 1 17845394213786071230
12932764 1 17894905200725358768
13140716 1 18409730668370556193
14965852 173 18412827988462850305
15196674 1 18411983572486532786
15219456 202 18409449206310473568
15375462 6 18265051525419086668
15775835 57 18334863766357644002
16945 1 18263629676538008769
17802600 8 18410288155389418018
18186145 218 18412261710105005320
200 152 18060696212734360895
20201158 50 18337111155329411722
21501502 16 18409167731301997345
221490 88 18338803445522147114
22721475 48 18408611369965499664
2334 1 18336547243166244081
23402539 116 17458344113380501340
23559900 14 18270953647881308649
238 59 15802666274214133525
25 1 18191022296526476249
2748010 2 18263075672948775949
2871803 45 18336536231229248023
3286 77 18342454902073334548
46194498 28 17249456915073879327
5104073 3 18412263947825061586
69090 78 18337106762010553425
7364860 26 18127411366020573856
8809292 202 18334018263496131602
9709674 26 18266459986818849450

> <PUBCHEM_SHAPE_MULTIPOLES>
325.25
6.34
2.49
0.86
2.08
0.43
-0.02
-2.07
-0.75
-0.51
-0.24
-0.34
0.18
0.23

> <PUBCHEM_SHAPE_SELFOVERLAP>
687.282

> <PUBCHEM_SHAPE_VOLUME>
181.8

> <PUBCHEM_COORDINATE_TYPE>
2
5
10

$$$$
