12283
     RDKit          3D

 37 38  0  0  0  0  0  0  0  0999 V2000
   -3.6652   -1.0894    1.1549 O   0  0  0  0  0  0  0  0  0  0  0  0
   -5.1137    1.8914   -1.9122 O   0  0  0  0  0  0  0  0  0  0  0  0
   -2.0622    0.1893    0.0687 N   0  0  0  0  0  0  0  0  09001  0  0
   -4.3682    0.4620   -0.3106 N   0  0  0  0  0  0  0  0  0  0  0  0
   -1.7880    1.1552   -0.9050 C   0  0  0  0  0  0  0  0  0  0  0  0
   -2.7946    1.7437   -1.5708 C   0  0  0  0  0  0  0  0  0  0  0  0
   -3.3775   -0.1939    0.3592 C   0  0  0  0  0  0  0  0  0  0  0  0
   -4.1883    1.3870   -1.2886 C   0  0  0  0  0  0  0  0  0  0  0  0
   -0.3826    1.5684   -1.2446 C   0  0  0  0  0  0  0  0  0  0  0  0
   -2.6439    2.4977   -2.3342 H   0  0  0  0  0  0  0  0  0  0  0  0
    0.2147    0.7079   -1.5585 H   0  0  0  0  0  0  0  0  0  0  0  0
   -0.3563    2.2782   -2.0803 H   0  0  0  0  0  0  0  0  0  0  0  0
    0.0901    2.0742   -0.3977 H   0  0  0  0  0  0  0  0  0  0  0  0
   -5.3163    0.1822   -0.1138 H   0  0  0  0  0  0  0  0  0  0  0  0
    3.7245    1.6418    0.5326 P   0  0  0  0  0  0  0  0  0  0  0  0
    0.2479    0.0216    0.8442 O   0  0  0  0  0  0  0  0  0  0  0  0
    1.0520   -3.4192    0.0077 O   0  0  0  0  0  0  0  0  0  0  0  0
   -1.1742   -2.8839    1.5736 O   0  0  0  0  0  0  0  0  0  0  0  0
    3.0866    0.3286    1.1797 O   0  0  0  0  0  0  0  0  0  0  0  0
    4.1651    2.5071    1.7952 O   0  0  0  0  0  0  0  0  0  0  0  0
    5.1460    1.1607   -0.0128 O   0  0  0  0  0  0  0  0  0  0  0  0
    2.9277    2.3525   -0.5045 O   0  0  0  0  0  0  0  0  0  0  0  0
    0.4959   -2.1174   -0.0567 C   0  0  2  0  0  0  0  0  0  0  0  0
    1.1742   -1.0846    0.8298 C   0  0  1  0  0  0  0  0  0  0  0  0
   -0.9447   -2.0369    0.4386 C   0  0  2  0  0  0  0  0  0  0  0  0
   -1.0718   -0.5491    0.8563 C   0  0  2  0  0  0  0  0  09002  0  0
    2.5278   -0.6321    0.2941 C   0  0  0  0  0  0  0  0  0  0  0  0
    0.5176   -1.7857   -1.1029 H   0  0  0  0  0  0  0  0  0  0  0  0
    1.2926   -1.4440    1.8603 H   0  0  0  0  0  0  0  0  0  0  0  0
   -1.6468   -2.3475   -0.3422 H   0  0  0  0  0  0  0  0  0  0  0  0
   -1.3979   -0.4918    1.9039 H   0  0  0  0  0  0  0  0  0  0  0  0
    2.4178   -0.2042   -0.7080 H   0  0  0  0  0  0  0  0  0  0  0  0
    3.2228   -1.4749    0.2323 H   0  0  0  0  0  0  0  0  0  0  0  0
    1.9450   -3.4042   -0.3726 H   0  0  0  0  0  0  0  0  0  0  0  0
   -2.1216   -2.7873    1.7972 H   0  0  0  0  0  0  0  0  0  0  0  0
    4.6556    1.9640    2.4371 H   0  0  0  0  0  0  0  0  0  0  0  0
    5.5099    1.8328   -0.6199 H   0  0  0  0  0  0  0  0  0  0  0  0
  1  7  2  0
  2  8  2  0
  3  5  1  0
  3  7  1  0
  4  7  1  0
  4  8  1  0
  4 14  1  0
  5  6  2  0
  5  9  1  0
  6  8  1  0
  6 10  1  0
  9 11  1  0
  9 12  1  0
  9 13  1  0
 15 19  1  0
 15 20  1  0
 15 21  1  0
 15 22  2  0
 16 24  1  0
 16 26  1  0
 17 23  1  0
 17 34  1  0
 18 25  1  0
 18 35  1  0
 19 27  1  0
 20 36  1  0
 21 37  1  0
 23 24  1  0
 23 25  1  0
 23 28  1  6
 24 27  1  0
 24 29  1  1
 25 26  1  0
 25 30  1  6
 26 31  1  1
 27 32  1  0
 27 33  1  0
  3 26  1  0
M  END
$$$$
