6211
     RDKit          3D

 30 31  0  0  0  0  0  0  0  0999 V2000
    0.8548   -0.1535    1.7913 O   0  0  0  0  0  0  0  0  0  0  0  0
    5.1617    0.6106    0.0571 O   0  0  0  0  0  0  0  0  0  0  0  0
    1.6808    0.2330   -2.7039 O   0  0  0  0  0  0  0  0  0  0  0  0
    1.1769    0.2726   -0.4498 N   0  0  0  0  0  0  0  0  09001  0  0
    3.3716    0.2212   -1.2537 N   0  0  0  0  0  0  0  0  0  0  0  0
    3.0504    0.4014    1.1390 C   0  0  0  0  0  0  0  0  0  0  0  0
    1.6032    0.1423    0.8571 C   0  0  0  0  0  0  0  0  0  0  0  0
    3.9527    0.4172   -0.0418 C   0  0  0  0  0  0  0  0  0  0  0  0
    2.0372    0.2403   -1.5273 C   0  0  0  0  0  0  0  0  0  0  0  0
    3.4074   -0.3830    1.8155 H   0  0  0  0  0  0  0  0  0  0  0  0
    3.1250    1.3725    1.6397 H   0  0  0  0  0  0  0  0  0  0  0  0
    3.9839    0.2530   -2.0576 H   0  0  0  0  0  0  0  0  0  0  0  0
   -0.9968    1.0956    0.0548 O   0  0  0  0  0  0  0  0  0  0  0  0
   -2.8402   -0.7116   -1.7190 O   0  0  0  0  0  0  0  0  0  0  0  0
   -0.6107   -2.1509   -1.5513 O   0  0  0  0  0  0  0  0  0  0  0  0
   -2.3755    1.6272    2.4660 O   0  0  0  0  0  0  0  0  0  0  0  0
   -2.3250   -0.8631   -0.3834 C   0  0  2  0  0  0  0  0  0  0  0  0
   -2.2846    0.4835    0.3411 C   0  0  1  0  0  0  0  0  0  0  0  0
   -0.8527   -1.2232   -0.4981 C   0  0  2  0  0  0  0  0  0  0  0  0
   -0.2432    0.1637   -0.7490 C   0  0  2  0  0  0  0  0  09002  0  0
   -2.4289    0.3391    1.8575 C   0  0  0  0  0  0  0  0  0  0  0  0
   -2.9232   -1.6329    0.1125 H   0  0  0  0  0  0  0  0  0  0  0  0
   -3.0456    1.1745   -0.0385 H   0  0  0  0  0  0  0  0  0  0  0  0
   -0.5024   -1.6690    0.4369 H   0  0  0  0  0  0  0  0  0  0  0  0
   -0.4174    0.4550   -1.7920 H   0  0  0  0  0  0  0  0  0  0  0  0
   -3.3909   -0.1149    2.1137 H   0  0  0  0  0  0  0  0  0  0  0  0
   -1.6329   -0.2693    2.2939 H   0  0  0  0  0  0  0  0  0  0  0  0
   -3.7775   -0.4518   -1.6463 H   0  0  0  0  0  0  0  0  0  0  0  0
   -1.2279   -1.8987   -2.2705 H   0  0  0  0  0  0  0  0  0  0  0  0
   -1.5300    2.0194    2.1719 H   0  0  0  0  0  0  0  0  0  0  0  0
  1  7  2  0
  2  8  2  0
  3  9  2  0
  4  7  1  0
  4  9  1  0
  5  8  1  0
  5  9  1  0
  5 12  1  0
  6  7  1  0
  6  8  1  0
  6 10  1  0
  6 11  1  0
 13 18  1  0
 13 20  1  0
 14 17  1  0
 14 28  1  0
 15 19  1  0
 15 29  1  0
 16 21  1  0
 16 30  1  0
 17 18  1  0
 17 19  1  0
 17 22  1  1
 18 21  1  0
 18 23  1  6
 19 20  1  0
 19 24  1  1
 20 25  1  6
 21 26  1  0
 21 27  1  0
  4 20  1  0
M  END
$$$$
