6211
     RDKit          3D

 35 36  0  0  0  0  0  0  0  0999 V2000
   -3.7233   -1.2482    0.9497 O   0  0  0  0  0  0  0  0  0  0  0  0
   -4.9233    2.9013   -0.9292 O   0  0  0  0  0  0  0  0  0  0  0  0
   -0.6171    1.7780   -0.5917 O   0  0  0  0  0  0  0  0  0  0  0  0
   -2.1145    0.2844    0.3380 N   0  0  0  0  0  0  0  0  09001  0  0
   -2.7744    2.3175   -0.6053 N   0  0  0  0  0  0  0  0  0  0  0  0
   -4.5197    0.8003    0.1144 C   0  0  0  0  0  0  0  0  0  0  0  0
   -3.4212   -0.1400    0.4995 C   0  0  0  0  0  0  0  0  0  0  0  0
   -4.1081    2.0826   -0.5110 C   0  0  0  0  0  0  0  0  0  0  0  0
   -1.7652    1.4617   -0.2845 C   0  0  0  0  0  0  0  0  0  0  0  0
   -5.0908    1.0360    1.0189 H   0  0  0  0  0  0  0  0  0  0  0  0
   -5.1691    0.2781   -0.5970 H   0  0  0  0  0  0  0  0  0  0  0  0
   -2.4993    3.1733   -1.0672 H   0  0  0  0  0  0  0  0  0  0  0  0
    4.2544    0.5870   -0.6485 P   0  0  0  0  0  0  0  0  0  0  0  0
   -0.1074   -0.0033    1.5759 O   0  0  0  0  0  0  0  0  0  0  0  0
    0.7428   -2.9220    0.8914 O   0  0  0  0  0  0  0  0  0  0  0  0
   -0.9210   -2.3350   -1.0989 O   0  0  0  0  0  0  0  0  0  0  0  0
    3.4304    0.0742    0.6224 O   0  0  0  0  0  0  0  0  0  0  0  0
    5.6091   -0.2495   -0.5649 O   0  0  0  0  0  0  0  0  0  0  0  0
    3.5202   -0.1007   -1.8865 O   0  0  0  0  0  0  0  0  0  0  0  0
    4.4574    2.0530   -0.7823 O   0  0  0  0  0  0  0  0  0  0  0  0
    1.0075   -1.6630    0.2419 C   0  0  2  0  0  0  0  0  0  0  0  0
    1.2001   -0.5471    1.2771 C   0  0  1  0  0  0  0  0  0  0  0  0
   -0.2669   -1.2371   -0.4678 C   0  0  2  0  0  0  0  0  0  0  0  0
   -1.0614   -0.6514    0.7092 C   0  0  2  0  0  0  0  0  09002  0  0
    2.1117    0.5742    0.7787 C   0  0  0  0  0  0  0  0  0  0  0  0
    1.8483   -1.8202   -0.4382 H   0  0  0  0  0  0  0  0  0  0  0  0
    1.6067   -0.9597    2.2078 H   0  0  0  0  0  0  0  0  0  0  0  0
   -0.0378   -0.4913   -1.2336 H   0  0  0  0  0  0  0  0  0  0  0  0
   -1.4897   -1.4722    1.2965 H   0  0  0  0  0  0  0  0  0  0  0  0
    2.1342    1.3942    1.5045 H   0  0  0  0  0  0  0  0  0  0  0  0
    1.7403    0.9934   -0.1614 H   0  0  0  0  0  0  0  0  0  0  0  0
    1.5754   -3.2038    1.3145 H   0  0  0  0  0  0  0  0  0  0  0  0
   -0.7703   -3.1016   -0.5060 H   0  0  0  0  0  0  0  0  0  0  0  0
    6.2347    0.1581    0.0613 H   0  0  0  0  0  0  0  0  0  0  0  0
    3.9072    0.1989   -2.7292 H   0  0  0  0  0  0  0  0  0  0  0  0
  1  7  2  0
  2  8  2  0
  3  9  2  0
  4  7  1  0
  4  9  1  0
  5  8  1  0
  5  9  1  0
  5 12  1  0
  6  7  1  0
  6  8  1  0
  6 10  1  0
  6 11  1  0
 13 17  1  0
 13 18  1  0
 13 19  1  0
 13 20  2  0
 14 22  1  0
 14 24  1  0
 15 21  1  0
 15 32  1  0
 16 23  1  0
 16 33  1  0
 17 25  1  0
 18 34  1  0
 19 35  1  0
 21 22  1  0
 21 23  1  0
 21 26  1  6
 22 25  1  0
 22 27  1  1
 23 24  1  0
 23 28  1  6
 24 29  1  1
 25 30  1  0
 25 31  1  0
  4 24  1  0
M  END
$$$$
