6211
     RDKit          3D

 30 31  0  0  0  0  0  0  0  0999 V2000
    1.6854    1.6759   -1.8909 O   0  0  0  0  0  0  0  0  0  0  0  0
    1.6941   -1.9880    0.7258 O   0  0  0  0  0  0  0  0  0  0  0  0
    5.1920    0.6796    0.4493 O   0  0  0  0  0  0  0  0  0  0  0  0
    3.2243    1.5373   -0.2540 N   0  0  0  0  0  0  0  0  0  0  0  0
    3.2973   -0.4256    0.9789 N   0  0  0  0  0  0  0  0  0  0  0  0
    1.1689    0.2859    0.0486 C   0  0  0  0  0  0  0  0  0  0  0  0
    2.0100    1.2181   -0.8017 C   0  0  0  0  0  0  0  0  0  0  0  0
    2.0461   -0.8208    0.5853 C   0  0  0  0  0  0  0  0  0  0  0  0
    3.9676    0.6215    0.4225 C   0  0  0  0  0  0  0  0  0  0  0  0
    0.8535    0.8786    0.9203 H   0  0  0  0  0  0  0  0  0  0  0  0
    3.7825    2.1666   -0.8180 H   0  0  0  0  0  0  0  0  0  0  0  0
    3.8981   -1.1593    1.3331 H   0  0  0  0  0  0  0  0  0  0  0  0
   -1.0028    0.9755   -0.7237 O   0  0  0  0  0  0  0  0  0  0  0  0
   -2.3425   -1.5873   -2.0000 O   0  0  0  0  0  0  0  0  0  0  0  0
   -0.5034   -2.5960   -0.4229 O   0  0  0  0  0  0  0  0  0  0  0  0
   -3.0578    2.5186    0.3812 O   0  0  0  0  0  0  0  0  0  0  0  0
   -2.3027   -1.0338   -0.6769 C   0  0  2  0  0  0  0  0  0  0  0  0
   -2.3713    0.4840   -0.7427 C   0  0  1  0  0  0  0  0  0  0  0  0
   -0.9275   -1.2827   -0.0723 C   0  0  2  0  0  0  0  0  0  0  0  0
   -0.0947   -0.1594   -0.7024 C   0  0  2  0  0  0  0  0  0  0  0  0
   -3.0760    1.0941    0.4701 C   0  0  0  0  0  0  0  0  0  0  0  0
   -3.1156   -1.4982   -0.1114 H   0  0  0  0  0  0  0  0  0  0  0  0
   -2.8272    0.8467   -1.6704 H   0  0  0  0  0  0  0  0  0  0  0  0
   -0.9756   -1.1822    1.0185 H   0  0  0  0  0  0  0  0  0  0  0  0
    0.1538   -0.4163   -1.7407 H   0  0  0  0  0  0  0  0  0  0  0  0
   -4.1183    0.7676    0.5302 H   0  0  0  0  0  0  0  0  0  0  0  0
   -2.5667    0.8254    1.4013 H   0  0  0  0  0  0  0  0  0  0  0  0
   -1.8461   -2.4305   -1.9345 H   0  0  0  0  0  0  0  0  0  0  0  0
    0.3522   -2.7489    0.0368 H   0  0  0  0  0  0  0  0  0  0  0  0
   -2.1973    2.7537   -0.0190 H   0  0  0  0  0  0  0  0  0  0  0  0
  1  7  2  0
  2  8  2  0
  3  9  2  0
  4  7  1  0
  4  9  1  0
  4 11  1  0
  5  8  1  0
  5  9  1  0
  5 12  1  0
  6  7  1  0
  6  8  1  0
  6 10  1  0
 13 18  1  0
 13 20  1  0
 14 17  1  0
 14 28  1  0
 15 19  1  0
 15 29  1  0
 16 21  1  0
 16 30  1  0
 17 18  1  0
 17 19  1  0
 17 22  1  1
 18 21  1  0
 18 23  1  6
 19 20  1  0
 19 24  1  1
 20 25  1  6
 21 26  1  0
 21 27  1  0
  6 20  1  0
M  END
$$$$
