6211
     RDKit          3D

 35 36  0  0  0  0  0  0  0  0999 V2000
   -1.1958   -0.0234    1.8632 O   0  0  0  0  0  0  0  0  0  0  0  0
   -3.4569   -0.2395   -2.2339 O   0  0  0  0  0  0  0  0  0  0  0  0
   -4.9821   -2.2641    1.4286 O   0  0  0  0  0  0  0  0  0  0  0  0
   -3.3028   -0.7856    1.7213 N   0  0  0  0  0  0  0  0  0  0  0  0
   -4.3745   -0.9745   -0.3211 N   0  0  0  0  0  0  0  0  0  0  0  0
   -2.4230    0.4863   -0.1654 C   0  0  0  0  0  0  0  0  0  0  0  0
   -2.2234   -0.1298    1.1984 C   0  0  0  0  0  0  0  0  0  0  0  0
   -3.4197   -0.2751   -1.0063 C   0  0  0  0  0  0  0  0  0  0  0  0
   -4.2741   -1.3717    0.9742 C   0  0  0  0  0  0  0  0  0  0  0  0
   -2.8846    1.4693    0.0042 H   0  0  0  0  0  0  0  0  0  0  0  0
   -3.1592   -1.2013    2.6322 H   0  0  0  0  0  0  0  0  0  0  0  0
   -5.0301   -1.4951   -0.8882 H   0  0  0  0  0  0  0  0  0  0  0  0
    4.0657   -1.0384    1.4019 P   0  0  0  0  0  0  0  0  0  0  0  0
   -0.2998   -0.5027   -0.9297 O   0  0  0  0  0  0  0  0  0  0  0  0
    1.1379    1.9129   -2.3456 O   0  0  0  0  0  0  0  0  0  0  0  0
   -0.6692    3.0918   -0.8118 O   0  0  0  0  0  0  0  0  0  0  0  0
    3.1689   -0.3983    0.2443 O   0  0  0  0  0  0  0  0  0  0  0  0
    5.5447   -0.5499    1.0489 O   0  0  0  0  0  0  0  0  0  0  0  0
    4.1837   -2.5870    1.0521 O   0  0  0  0  0  0  0  0  0  0  0  0
    3.7066   -0.7040    2.8057 O   0  0  0  0  0  0  0  0  0  0  0  0
    1.1217    1.4374   -0.9857 C   0  0  2  0  0  0  0  0  0  0  0  0
    1.0903   -0.0957   -0.9318 C   0  0  1  0  0  0  0  0  0  0  0  0
   -0.2257    1.8096   -0.3855 C   0  0  2  0  0  0  0  0  0  0  0  0
   -1.1125    0.6897   -0.9297 C   0  0  2  0  0  0  0  0  0  0  0  0
    1.7741   -0.6532    0.3166 C   0  0  0  0  0  0  0  0  0  0  0  0
    1.9666    1.9018   -0.4697 H   0  0  0  0  0  0  0  0  0  0  0  0
    1.5591   -0.5202   -1.8271 H   0  0  0  0  0  0  0  0  0  0  0  0
   -0.1628    1.8061    0.7052 H   0  0  0  0  0  0  0  0  0  0  0  0
   -1.3403    0.9147   -1.9804 H   0  0  0  0  0  0  0  0  0  0  0  0
    1.3696   -0.1983    1.2264 H   0  0  0  0  0  0  0  0  0  0  0  0
    1.5991   -1.7329    0.3851 H   0  0  0  0  0  0  0  0  0  0  0  0
    1.9722    1.6070   -2.7460 H   0  0  0  0  0  0  0  0  0  0  0  0
   -0.2906    3.2045   -1.7103 H   0  0  0  0  0  0  0  0  0  0  0  0
    5.8222    0.1317    1.6909 H   0  0  0  0  0  0  0  0  0  0  0  0
    4.7446   -2.7219    0.2679 H   0  0  0  0  0  0  0  0  0  0  0  0
  1  7  2  0
  2  8  2  0
  3  9  2  0
  4  7  1  0
  4  9  1  0
  4 11  1  0
  5  8  1  0
  5  9  1  0
  5 12  1  0
  6  7  1  0
  6  8  1  0
  6 10  1  0
 13 17  1  0
 13 18  1  0
 13 19  1  0
 13 20  2  0
 14 22  1  0
 14 24  1  0
 15 21  1  0
 15 32  1  0
 16 23  1  0
 16 33  1  0
 17 25  1  0
 18 34  1  0
 19 35  1  0
 21 22  1  0
 21 23  1  0
 21 26  1  1
 22 25  1  0
 22 27  1  6
 23 24  1  0
 23 28  1  1
 24 29  1  6
 25 30  1  0
 25 31  1  0
  6 24  1  0
M  END
$$$$
