7956
     RDKit          3D

 34 35  0  0  0  0  0  0  0  0999 V2000
   -2.9298    2.2052    1.8401 O   0  0  0  0  0  0  0  0  0  0  0  0
   -1.5020   -1.9391    0.4125 O   0  0  0  0  0  0  0  0  0  0  0  0
   -5.8172   -1.2038    1.4104 O   0  0  0  0  0  0  0  0  0  0  0  0
   -2.0908    0.1577    1.1663 N   0  0  0  0  0  0  0  0  0  0  0  0
   -4.3362    0.4779    1.7036 N   0  0  0  0  0  0  0  0  0  0  0  0
   -3.6349   -1.5748    0.9642 N   0  0  0  0  0  0  0  0  0  0  0  0
   -3.0897    1.0144    1.5804 C   0  0  0  0  0  0  0  0  0  0  0  0
   -2.3501   -1.1484    0.8223 C   0  0  0  0  0  0  0  0  0  0  0  0
   -4.6638   -0.7912    1.3653 C   0  0  0  0  0  0  0  0  0  0  0  0
   -5.0819    1.0989    1.9804 H   0  0  0  0  0  0  0  0  0  0  0  0
   -3.8483   -2.5222    0.6904 H   0  0  0  0  0  0  0  0  0  0  0  0
    3.5974    0.0362   -2.5326 P   0  0  0  0  0  0  0  0  0  0  0  0
   -0.5449    0.8723   -0.4562 O   0  0  0  0  0  0  0  0  0  0  0  0
    2.5966   -0.6505    0.5568 O   0  0  0  0  0  0  0  0  0  0  0  0
    1.2589    0.7334    2.3463 O   0  0  0  0  0  0  0  0  0  0  0  0
    2.1609   -0.6537   -2.4097 O   0  0  0  0  0  0  0  0  0  0  0  0
    3.4105    1.1405   -3.6690 O   0  0  0  0  0  0  0  0  0  0  0  0
    3.7330    0.9286   -1.2189 O   0  0  0  0  0  0  0  0  0  0  0  0
    4.7489   -0.8776   -2.7629 O   0  0  0  0  0  0  0  0  0  0  0  0
    1.1864   -0.5555    0.2899 C   0  0  2  0  0  0  0  0  0  0  0  0
    0.8298    0.5362   -0.7158 C   0  0  1  0  0  0  0  0  0  0  0  0
    0.4214   -0.1069    1.5305 C   0  0  2  0  0  0  0  0  0  0  0  0
   -0.7613    0.7126    0.9632 C   0  0  2  0  0  0  0  0  0  0  0  0
    0.9972    0.1178   -2.1786 C   0  0  0  0  0  0  0  0  0  0  0  0
    0.8315   -1.5272   -0.0672 H   0  0  0  0  0  0  0  0  0  0  0  0
    1.4301    1.4341   -0.5276 H   0  0  0  0  0  0  0  0  0  0  0  0
    0.1228   -0.9429    2.1689 H   0  0  0  0  0  0  0  0  0  0  0  0
   -0.7172    1.7221    1.3876 H   0  0  0  0  0  0  0  0  0  0  0  0
    0.1397   -0.4933   -2.4834 H   0  0  0  0  0  0  0  0  0  0  0  0
    0.9779    0.9974   -2.8314 H   0  0  0  0  0  0  0  0  0  0  0  0
    2.7274   -1.5347    0.9586 H   0  0  0  0  0  0  0  0  0  0  0  0
    2.1840    0.5227    2.1100 H   0  0  0  0  0  0  0  0  0  0  0  0
    4.2782    1.4643   -3.9707 H   0  0  0  0  0  0  0  0  0  0  0  0
    3.7354    0.3495   -0.4238 H   0  0  0  0  0  0  0  0  0  0  0  0
  1  7  2  0
  2  8  2  0
  3  9  2  0
  4  7  1  0
  4  8  1  0
  5  7  1  0
  5  9  1  0
  5 10  1  0
  6  8  1  0
  6  9  1  0
  6 11  1  0
 12 16  1  0
 12 17  1  0
 12 18  1  0
 12 19  2  0
 13 21  1  0
 13 23  1  0
 14 20  1  0
 14 31  1  0
 15 22  1  0
 15 32  1  0
 16 24  1  0
 17 33  1  0
 18 34  1  0
 20 21  1  0
 20 22  1  0
 20 25  1  6
 21 24  1  0
 21 26  1  1
 22 23  1  0
 22 27  1  1
 23 28  1  1
 24 29  1  0
 24 30  1  0
  4 23  1  0
M  END
$$$$
