7956
     RDKit          3D

 29 30  0  0  0  0  0  0  0  0999 V2000
   -0.6929    1.9077   -0.4925 O   0  0  0  0  0  0  0  0  0  0  0  0
   -2.4550   -2.2405    0.4125 O   0  0  0  0  0  0  0  0  0  0  0  0
   -5.0914    1.1928   -0.7355 O   0  0  0  0  0  0  0  0  0  0  0  0
   -1.4776   -0.1572    0.1910 N   0  0  0  0  0  0  0  0  0  0  0  0
   -2.8998    1.5976   -0.3718 N   0  0  0  0  0  0  0  0  0  0  0  0
   -3.7770   -0.4856    0.0134 N   0  0  0  0  0  0  0  0  0  0  0  0
   -1.6221    1.1489   -0.2195 C   0  0  0  0  0  0  0  0  0  0  0  0
   -2.5454   -1.0284    0.2261 C   0  0  0  0  0  0  0  0  0  0  0  0
   -3.9899    0.7942   -0.3732 C   0  0  0  0  0  0  0  0  0  0  0  0
   -3.0179    2.5347   -0.7259 H   0  0  0  0  0  0  0  0  0  0  0  0
   -4.5594   -1.1215   -0.0209 H   0  0  0  0  0  0  0  0  0  0  0  0
    0.6001    0.0812    1.3109 O   0  0  0  0  0  0  0  0  0  0  0  0
    2.3323   -2.2106    0.1056 O   0  0  0  0  0  0  0  0  0  0  0  0
    0.4032   -1.9470   -1.7055 O   0  0  0  0  0  0  0  0  0  0  0  0
    3.7913    1.5559    0.2382 O   0  0  0  0  0  0  0  0  0  0  0  0
    2.0931   -0.8553   -0.3223 C   0  0  2  0  0  0  0  0  0  0  0  0
    1.9818    0.0862    0.8820 C   0  0  1  0  0  0  0  0  0  0  0  0
    0.6934   -0.8005   -0.9105 C   0  0  2  0  0  0  0  0  0  0  0  0
   -0.1487   -0.7157    0.3706 C   0  0  2  0  0  0  0  0  0  0  0  0
    2.4025    1.5183    0.5479 C   0  0  0  0  0  0  0  0  0  0  0  0
    2.8738   -0.5993   -1.0439 H   0  0  0  0  0  0  0  0  0  0  0  0
    2.5894   -0.2868    1.7146 H   0  0  0  0  0  0  0  0  0  0  0  0
    0.5852    0.0870   -1.5401 H   0  0  0  0  0  0  0  0  0  0  0  0
   -0.2329   -1.7139    0.8175 H   0  0  0  0  0  0  0  0  0  0  0  0
    2.2109    2.1772    1.4016 H   0  0  0  0  0  0  0  0  0  0  0  0
    1.8465    1.9135   -0.3066 H   0  0  0  0  0  0  0  0  0  0  0  0
    3.2331   -2.2307    0.4804 H   0  0  0  0  0  0  0  0  0  0  0  0
    0.8567   -2.6931   -1.2586 H   0  0  0  0  0  0  0  0  0  0  0  0
    4.0168    2.4912    0.0834 H   0  0  0  0  0  0  0  0  0  0  0  0
  1  7  2  0
  2  8  2  0
  3  9  2  0
  4  7  1  0
  4  8  1  0
  5  7  1  0
  5  9  1  0
  5 10  1  0
  6  8  1  0
  6  9  1  0
  6 11  1  0
 12 17  1  0
 12 19  1  0
 13 16  1  0
 13 27  1  0
 14 18  1  0
 14 28  1  0
 15 20  1  0
 15 29  1  0
 16 17  1  0
 16 18  1  0
 16 21  1  6
 17 20  1  0
 17 22  1  1
 18 19  1  0
 18 23  1  6
 19 24  1  1
 20 25  1  0
 20 26  1  0
  4 19  1  0
M  END
$$$$
