135398631
  -OEChem-04062613293D

 38 40  0     1  0  0  0  0  0999 V2000
    4.7641    1.4776    0.1085 P   0  0  0  0  0  0  0  0  0  0  0  0
    1.2278   -0.7992    1.0662 O   0  0  0  0  0  0  0  0  0  0  0  0
   -0.6285   -2.7614   -1.3179 O   0  0  0  0  0  0  0  0  0  0  0  0
    1.3452   -3.7365    0.3333 O   0  0  0  0  0  0  0  0  0  0  0  0
    3.7578    0.3314    0.6521 O   0  0  0  0  0  0  0  0  0  0  0  0
    3.9286    2.1901   -1.0787 O   0  0  0  0  0  0  0  0  0  0  0  0
    5.8864    0.6263   -0.6856 O   0  0  0  0  0  0  0  0  0  0  0  0
   -4.2430    3.0186   -0.4267 O   0  0  0  0  0  0  0  0  0  0  0  0
    5.2985    2.4032    1.1621 O   0  0  0  0  0  0  0  0  0  0  0  0
   -0.8696    0.0732    0.1733 N   0  0  0  0  0  0  0  0  0  0  0  0
   -1.3911    2.2038   -0.2633 N   0  0  0  0  0  0  0  0  0  0  0  0
   -3.0800   -0.8926    0.3748 N   0  0  0  0  0  0  0  0  0  0  0  0
   -4.7544    0.7867    0.0324 N   0  0  0  0  0  0  0  0  0  0  0  0
   -5.3617   -1.4415    0.4905 N   0  0  0  0  0  0  0  0  0  0  0  0
    0.3728   -1.8742   -0.8611 C   0  0  2  0  0  0  0  0  0  0  0  0
    1.6480   -2.5818   -0.4482 C   0  0  1  0  0  0  0  0  0  0  0  0
   -0.0153   -1.1472    0.4222 C   0  0  1  0  0  0  0  0  0  0  0  0
    2.3037   -1.5544    0.4658 C   0  0  1  0  0  0  0  0  0  0  0  0
    3.2091   -0.5837   -0.2799 C   0  0  0  0  0  0  0  0  0  0  0  0
   -2.2318    0.1377    0.1621 C   0  0  0  0  0  0  0  0  0  0  0  0
   -0.4096    1.3409   -0.0876 C   0  0  0  0  0  0  0  0  0  0  0  0
   -2.5193    1.4539   -0.1077 C   0  0  0  0  0  0  0  0  0  0  0  0
   -3.8922    1.8693   -0.1911 C   0  0  0  0  0  0  0  0  0  0  0  0
   -4.3455   -0.5404    0.3043 C   0  0  0  0  0  0  0  0  0  0  0  0
    0.5840   -1.1538   -1.6609 H   0  0  0  0  0  0  0  0  0  0  0  0
    2.2616   -2.9010   -1.2955 H   0  0  0  0  0  0  0  0  0  0  0  0
   -0.5960   -1.7762    1.1076 H   0  0  0  0  0  0  0  0  0  0  0  0
    2.8576   -2.0193    1.2892 H   0  0  0  0  0  0  0  0  0  0  0  0
    2.6432   -0.0205   -1.0282 H   0  0  0  0  0  0  0  0  0  0  0  0
    4.0167   -1.1291   -0.7777 H   0  0  0  0  0  0  0  0  0  0  0  0
   -0.2581   -3.2575   -2.0676 H   0  0  0  0  0  0  0  0  0  0  0  0
    2.1904   -4.1344    0.6036 H   0  0  0  0  0  0  0  0  0  0  0  0
    0.6450    1.5749   -0.1405 H   0  0  0  0  0  0  0  0  0  0  0  0
   -5.7529    0.9704   -0.0040 H   0  0  0  0  0  0  0  0  0  0  0  0
   -6.3345   -1.1607    0.4341 H   0  0  0  0  0  0  0  0  0  0  0  0
   -5.1684   -2.4168    0.6903 H   0  0  0  0  0  0  0  0  0  0  0  0
    4.3119    2.9759   -1.5233 H   0  0  0  0  0  0  0  0  0  0  0  0
    6.6737    1.0925   -1.0391 H   0  0  0  0  0  0  0  0  0  0  0  0
  1  5  1  0  0  0  0
  1  6  1  0  0  0  0
  1  7  1  0  0  0  0
  1  9  2  0  0  0  0
  2 17  1  0  0  0  0
  2 18  1  0  0  0  0
  3 15  1  0  0  0  0
  3 31  1  0  0  0  0
  4 16  1  0  0  0  0
  4 32  1  0  0  0  0
  5 19  1  0  0  0  0
  6 37  1  0  0  0  0
  7 38  1  0  0  0  0
  8 23  2  0  0  0  0
 10 17  1  0  0  0  0
 10 20  1  0  0  0  0
 10 21  1  0  0  0  0
 11 21  2  0  0  0  0
 11 22  1  0  0  0  0
 12 20  1  0  0  0  0
 12 24  2  0  0  0  0
 13 23  1  0  0  0  0
 13 24  1  0  0  0  0
 13 34  1  0  0  0  0
 14 24  1  0  0  0  0
 14 35  1  0  0  0  0
 14 36  1  0  0  0  0
 15 16  1  0  0  0  0
 15 17  1  0  0  0  0
 15 25  1  0  0  0  0
 16 18  1  0  0  0  0
 16 26  1  0  0  0  0
 17 27  1  0  0  0  0
 18 19  1  0  0  0  0
 18 28  1  0  0  0  0
 19 29  1  0  0  0  0
 19 30  1  0  0  0  0
 20 22  2  0  0  0  0
 21 33  1  0  0  0  0
 22 23  1  0  0  0  0
M  END
> <PUBCHEM_COMPOUND_CID>
135398631

> <PUBCHEM_CONFORMER_RMSD>
0.8

> <PUBCHEM_CONFORMER_DIVERSEORDER>
1
59
62
21
5
41
47
39
25
30
2
44
19
4
23
53
33
29
35
56
54
15
18
6
58
26
11
40
22
52
55
13
60
32
31
27
9
10
51
63
50
17
48
12
65
57
7
14
38
16
61
49
37
43
42
24
45
64
3
36
8
46
28
20
34

> <PUBCHEM_MMFF94_PARTIAL_CHARGES>
32
1 1.51
10 0.05
11 -0.57
12 -0.58
13 -0.49
14 -0.85
15 0.28
16 0.28
17 0.54
18 0.28
19 0.28
2 -0.56
20 -0.03
21 0.04
22 0.14
23 0.72
24 0.56
3 -0.68
31 0.4
32 0.4
33 0.15
34 0.37
35 0.4
36 0.4
37 0.5
38 0.5
4 -0.68
5 -0.55
6 -0.77
7 -0.77
8 -0.57
9 -0.7

> <PUBCHEM_EFFECTIVE_ROTOR_COUNT>
5

> <PUBCHEM_PHARMACOPHORE_FEATURES>
16
1 13 donor
1 14 donor
1 2 acceptor
1 3 acceptor
1 3 donor
1 4 acceptor
1 4 donor
1 6 acceptor
1 7 acceptor
1 8 acceptor
1 9 acceptor
3 10 11 21 cation
4 1 6 7 9 anion
5 10 11 20 21 22 rings
5 2 15 16 17 18 rings
6 12 13 20 22 23 24 rings

> <PUBCHEM_HEAVY_ATOM_COUNT>
24

> <PUBCHEM_ATOM_DEF_STEREO_COUNT>
4

> <PUBCHEM_ATOM_UDEF_STEREO_COUNT>
0

> <PUBCHEM_BOND_DEF_STEREO_COUNT>
0

> <PUBCHEM_BOND_UDEF_STEREO_COUNT>
0

> <PUBCHEM_ISOTOPIC_ATOM_COUNT>
0

> <PUBCHEM_COMPONENT_COUNT>
1

> <PUBCHEM_CACTVS_TAUTO_COUNT>
-1

> <PUBCHEM_CONFORMER_ID>
081204E700000001

> <PUBCHEM_MMFF94_ENERGY>
21.6728

> <PUBCHEM_FEATURE_SELFOVERLAP>
81.425

> <PUBCHEM_SHAPE_FINGERPRINT>
10090160 65 18260544558447990543
10498660 4 18412264999971060144
10906281 52 18262817232556582449
11578080 2 16589411009004436543
12403259 118 18335688413095078224
12788726 201 17321279234987327562
12925494 130 18339920399255608561
13583140 156 17315612038018703050
14341114 328 17313383448424388120
14528608 73 18413103948569755668
1454969 45 18341048635877127087
14787075 74 18341611563886050963
14790565 3 18340210781487542968
15196674 1 18408886200543439880
15961568 22 18113903740745079564
17980427 23 17822301188374427229
19591789 44 18195809797940196905
21065198 57 18121497947583529259
22620623 9 16843876684474419358
23227448 37 18199464557679963692
23559900 14 18050844416698418859
4325135 7 18334295383528887359
474 4 18041003938269852340
474229 33 18337392737532910555
5104073 3 18262239902620274513
6442390 28 18411418440637406402
67856867 119 18263075522830850666
7808743 9 18195521713589183616
9709674 26 17909549459332363911
9981440 41 18333452057905103762

> <PUBCHEM_SHAPE_MULTIPOLES>
425.9
11.23
3.52
0.89
3.18
1
0.05
-7.36
-0.7
0.86
0.46
0.52
0.09
0.61

> <PUBCHEM_SHAPE_SELFOVERLAP>
900.982

> <PUBCHEM_SHAPE_VOLUME>
242.2

> <PUBCHEM_COORDINATE_TYPE>
2
5
10

$$$$
