574321
     RDKit          3D

 34 35  0  0  0  0  0  0  0  0999 V2000
    2.4978   -0.2269   -2.5671 O   0  0  0  0  0  0  0  0  0  0  0  0
    2.6648    1.3529   -4.1062 O   0  0  0  0  0  0  0  0  0  0  0  0
    1.6013    1.6637   -0.5703 N   0  0  0  0  0  0  0  0  09001  0  0
    1.8823    3.2630   -2.0826 N   0  0  0  0  0  0  0  0  0  0  0  0
    1.9722    1.9538   -1.8776 C   0  0  0  0  0  0  0  0  0  0  0  0
    1.2058    2.8435    0.0160 C   0  0  0  0  0  0  0  0  0  0  0  0
    1.4087    3.8143   -0.9303 C   0  0  0  0  0  0  0  0  0  0  0  0
    2.3944    1.0653   -2.9474 C   0  0  0  0  0  0  0  0  0  0  0  0
    0.8284    2.9169    1.0246 H   0  0  0  0  0  0  0  0  0  0  0  0
    1.2316    4.8798   -0.8453 H   0  0  0  0  0  0  0  0  0  0  0  0
    2.7598   -0.6701   -3.4013 H   0  0  0  0  0  0  0  0  0  0  0  0
   -3.6137   -2.2391   -0.6691 P   0  0  0  0  0  0  0  0  0  0  0  0
    0.3795   -0.3158   -0.3852 O   0  0  0  0  0  0  0  0  0  0  0  0
   -0.0175   -0.5555    3.1985 O   0  0  0  0  0  0  0  0  0  0  0  0
    2.3970   -0.7715    2.0796 O   0  0  0  0  0  0  0  0  0  0  0  0
   -2.0721   -1.8948   -0.4391 O   0  0  0  0  0  0  0  0  0  0  0  0
   -3.5811   -3.2544   -1.8976 O   0  0  0  0  0  0  0  0  0  0  0  0
   -3.9843   -3.2083    0.5420 O   0  0  0  0  0  0  0  0  0  0  0  0
   -4.5469   -1.0945   -0.8476 O   0  0  0  0  0  0  0  0  0  0  0  0
    0.1277    0.0529    1.9211 C   0  0  2  0  0  0  0  0  0  0  0  0
   -0.2685   -0.8696    0.7767 C   0  0  1  0  0  0  0  0  0  0  0  0
    1.5890    0.3176    1.5948 C   0  0  2  0  0  0  0  0  0  0  0  0
    1.5875    0.3490    0.0535 C   0  0  2  0  0  0  0  0  09002  0  0
   -1.7777   -0.9395    0.5712 C   0  0  0  0  0  0  0  0  0  0  0  0
   -0.4538    0.9823    1.8879 H   0  0  0  0  0  0  0  0  0  0  0  0
    0.1227   -1.8841    0.9228 H   0  0  0  0  0  0  0  0  0  0  0  0
    1.9815    1.2168    2.0766 H   0  0  0  0  0  0  0  0  0  0  0  0
    2.4579   -0.2077   -0.3023 H   0  0  0  0  0  0  0  0  0  0  0  0
   -2.2757   -1.2353    1.5000 H   0  0  0  0  0  0  0  0  0  0  0  0
   -2.1663    0.0309    0.2433 H   0  0  0  0  0  0  0  0  0  0  0  0
    0.1301    0.1307    3.8760 H   0  0  0  0  0  0  0  0  0  0  0  0
    1.8881   -1.2032    2.7970 H   0  0  0  0  0  0  0  0  0  0  0  0
   -3.4332   -2.7818   -2.7363 H   0  0  0  0  0  0  0  0  0  0  0  0
   -4.9174   -3.4809    0.4894 H   0  0  0  0  0  0  0  0  0  0  0  0
  1  8  1  0
  1 11  1  0
  2  8  2  0
  3  5  1  0
  3  6  1  0
  4  5  2  0
  4  7  1  0
  5  8  1  0
  6  7  2  0
  6  9  1  0
  7 10  1  0
 12 16  1  0
 12 17  1  0
 12 18  1  0
 12 19  2  0
 13 21  1  0
 13 23  1  0
 14 20  1  0
 14 31  1  0
 15 22  1  0
 15 32  1  0
 16 24  1  0
 17 33  1  0
 18 34  1  0
 20 21  1  0
 20 22  1  0
 20 25  1  1
 21 24  1  0
 21 26  1  1
 22 23  1  0
 22 27  1  1
 23 28  1  6
 24 29  1  0
 24 30  1  0
  3 23  1  0
M  END
$$$$
