795
     RDKit          3D

 26 27  0  0  0  0  0  0  0  0999 V2000
    1.8170   -0.2232   -0.2657 N   0  0  0  0  0  0  0  0  09001  0  0
    3.9511   -0.6206    0.1820 N   0  0  0  0  0  0  0  0  0  0  0  0
    2.2258    0.7882    0.5603 C   0  0  0  0  0  0  0  0  0  0  0  0
    2.8957   -1.0375   -0.4796 C   0  0  0  0  0  0  0  0  0  0  0  0
    3.5500    0.5241    0.8198 C   0  0  0  0  0  0  0  0  0  0  0  0
    1.5737    1.5922    0.8712 H   0  0  0  0  0  0  0  0  0  0  0  0
    2.8556   -1.9167   -1.1108 H   0  0  0  0  0  0  0  0  0  0  0  0
    4.2360    1.0977    1.4297 H   0  0  0  0  0  0  0  0  0  0  0  0
   -0.2678    0.7696   -0.7810 O   0  0  0  0  0  0  0  0  0  0  0  0
   -2.3196   -1.2944    1.3676 O   0  0  0  0  0  0  0  0  0  0  0  0
   -1.1071   -2.3241   -0.7992 O   0  0  0  0  0  0  0  0  0  0  0  0
   -2.4550    2.7356   -0.3140 O   0  0  0  0  0  0  0  0  0  0  0  0
   -1.1676   -0.6001    0.9059 C   0  0  2  0  0  0  0  0  0  0  0  0
   -1.4981    0.5258   -0.0655 C   0  0  1  0  0  0  0  0  0  0  0  0
   -0.2915   -1.4908    0.0409 C   0  0  2  0  0  0  0  0  0  0  0  0
    0.4842   -0.4668   -0.7973 C   0  0  2  0  0  0  0  0  09002  0  0
   -1.9716    1.7943    0.6426 C   0  0  0  0  0  0  0  0  0  0  0  0
   -0.6012   -0.2173    1.7637 H   0  0  0  0  0  0  0  0  0  0  0  0
   -2.2540    0.2169   -0.7990 H   0  0  0  0  0  0  0  0  0  0  0  0
    0.3356   -2.1631    0.6342 H   0  0  0  0  0  0  0  0  0  0  0  0
    0.5990   -0.7776   -1.8419 H   0  0  0  0  0  0  0  0  0  0  0  0
   -2.7880    1.5740    1.3370 H   0  0  0  0  0  0  0  0  0  0  0  0
   -1.1464    2.2657    1.1864 H   0  0  0  0  0  0  0  0  0  0  0  0
   -2.0351   -1.9009    2.0766 H   0  0  0  0  0  0  0  0  0  0  0  0
   -1.9737   -2.4117   -0.3515 H   0  0  0  0  0  0  0  0  0  0  0  0
   -2.6470    3.5606    0.1630 H   0  0  0  0  0  0  0  0  0  0  0  0
  1  3  1  0
  1  4  1  0
  2  4  2  0
  2  5  1  0
  3  5  2  0
  3  6  1  0
  4  7  1  0
  5  8  1  0
  9 14  1  0
  9 16  1  0
 10 13  1  0
 10 24  1  0
 11 15  1  0
 11 25  1  0
 12 17  1  0
 12 26  1  0
 13 14  1  0
 13 15  1  0
 13 18  1  1
 14 17  1  0
 14 19  1  6
 15 16  1  0
 15 20  1  1
 16 21  1  6
 17 22  1  0
 17 23  1  0
  1 16  1  0
M  END
$$$$
