795
     RDKit          3D

 31 32  0  0  0  0  0  0  0  0999 V2000
   -2.7281    0.5766    0.2893 N   0  0  0  0  0  0  0  0  09001  0  0
   -4.4642    1.2254    1.5049 N   0  0  0  0  0  0  0  0  0  0  0  0
   -2.5633    0.0044    1.5212 C   0  0  0  0  0  0  0  0  0  0  0  0
   -3.8932    1.2933    0.3239 C   0  0  0  0  0  0  0  0  0  0  0  0
   -3.6508    0.4171    2.2547 C   0  0  0  0  0  0  0  0  0  0  0  0
   -1.7285   -0.6362    1.7662 H   0  0  0  0  0  0  0  0  0  0  0  0
   -4.2719    1.8463   -0.5269 H   0  0  0  0  0  0  0  0  0  0  0  0
   -3.8924    0.1738    3.2815 H   0  0  0  0  0  0  0  0  0  0  0  0
    3.7020   -1.7367    0.5350 P   0  0  0  0  0  0  0  0  0  0  0  0
   -1.0286   -0.6934   -0.7618 O   0  0  0  0  0  0  0  0  0  0  0  0
    1.5182    1.8850   -0.7894 O   0  0  0  0  0  0  0  0  0  0  0  0
   -0.6529    2.0707   -2.3135 O   0  0  0  0  0  0  0  0  0  0  0  0
    2.5534   -0.7377    0.0415 O   0  0  0  0  0  0  0  0  0  0  0  0
    3.5963   -3.0316   -0.3859 O   0  0  0  0  0  0  0  0  0  0  0  0
    3.2225   -2.2615    1.9616 O   0  0  0  0  0  0  0  0  0  0  0  0
    5.0754   -1.1650    0.5781 O   0  0  0  0  0  0  0  0  0  0  0  0
    0.3833    1.1562   -0.3339 C   0  0  2  0  0  0  0  0  0  0  0  0
    0.3483   -0.2895   -0.8188 C   0  0  1  0  0  0  0  0  0  0  0  0
   -0.8933    1.7070   -0.9437 C   0  0  2  0  0  0  0  0  0  0  0  0
   -1.8408    0.5050   -0.8617 C   0  0  2  0  0  0  0  0  09002  0  0
    1.2183   -1.2190    0.0199 C   0  0  0  0  0  0  0  0  0  0  0  0
    0.3318    1.2096    0.7600 H   0  0  0  0  0  0  0  0  0  0  0  0
    0.6858   -0.3412   -1.8625 H   0  0  0  0  0  0  0  0  0  0  0  0
   -1.2532    2.6065   -0.4350 H   0  0  0  0  0  0  0  0  0  0  0  0
   -2.4695    0.4058   -1.7539 H   0  0  0  0  0  0  0  0  0  0  0  0
    1.1749   -2.2318   -0.3951 H   0  0  0  0  0  0  0  0  0  0  0  0
    0.8394   -1.2753    1.0466 H   0  0  0  0  0  0  0  0  0  0  0  0
    2.3073    1.3667   -0.5304 H   0  0  0  0  0  0  0  0  0  0  0  0
    0.2348    2.4887   -2.3112 H   0  0  0  0  0  0  0  0  0  0  0  0
    4.4401   -3.5187   -0.4033 H   0  0  0  0  0  0  0  0  0  0  0  0
    3.6990   -1.8005    2.6773 H   0  0  0  0  0  0  0  0  0  0  0  0
  1  3  1  0
  1  4  1  0
  2  4  2  0
  2  5  1  0
  3  5  2  0
  3  6  1  0
  4  7  1  0
  5  8  1  0
  9 13  1  0
  9 14  1  0
  9 15  1  0
  9 16  2  0
 10 18  1  0
 10 20  1  0
 11 17  1  0
 11 28  1  0
 12 19  1  0
 12 29  1  0
 13 21  1  0
 14 30  1  0
 15 31  1  0
 17 18  1  0
 17 19  1  0
 17 22  1  1
 18 21  1  0
 18 23  1  6
 19 20  1  0
 19 24  1  1
 20 25  1  6
 21 26  1  0
 21 27  1  0
  1 20  1  0
M  END
$$$$
