574321
  -OEChem-04062613293D

 12 12  0     0  0  0  0  0  0999 V2000
   -2.0203   -1.1625   -0.0012 O   0  0  0  0  0  0  0  0  0  0  0  0
   -2.1397    1.1073    0.0004 O   0  0  0  0  0  0  0  0  0  0  0  0
    0.8240    1.1160   -0.0004 N   0  0  0  0  0  0  0  0  0  0  0  0
    0.6709   -1.0996    0.0007 N   0  0  0  0  0  0  0  0  0  0  0  0
   -0.0043    0.0283    0.0007 C   0  0  0  0  0  0  0  0  0  0  0  0
    2.1093    0.6521   -0.0008 C   0  0  0  0  0  0  0  0  0  0  0  0
    1.9892   -0.7177    0.0003 C   0  0  0  0  0  0  0  0  0  0  0  0
   -1.4290    0.0761    0.0004 C   0  0  0  0  0  0  0  0  0  0  0  0
    0.5395    2.0866   -0.0009 H   0  0  0  0  0  0  0  0  0  0  0  0
    2.9609    1.3168   -0.0017 H   0  0  0  0  0  0  0  0  0  0  0  0
    2.7848   -1.4484    0.0003 H   0  0  0  0  0  0  0  0  0  0  0  0
   -2.9992   -1.0955   -0.0018 H   0  0  0  0  0  0  0  0  0  0  0  0
  1  8  1  0  0  0  0
  1 12  1  0  0  0  0
  2  8  2  0  0  0  0
  3  5  1  0  0  0  0
  3  6  1  0  0  0  0
  3  9  1  0  0  0  0
  4  5  2  0  0  0  0
  4  7  1  0  0  0  0
  5  8  1  0  0  0  0
  6  7  2  0  0  0  0
  6 10  1  0  0  0  0
  7 11  1  0  0  0  0
M  END
> <PUBCHEM_COMPOUND_CID>
574321

> <PUBCHEM_CONFORMER_RMSD>
0.4

> <PUBCHEM_CONFORMER_DIVERSEORDER>
1
2

> <PUBCHEM_MMFF94_PARTIAL_CHARGES>
12
1 -0.65
10 0.15
11 0.15
12 0.5
2 -0.57
3 0.03
4 -0.57
5 0.1
6 -0.3
7 0.08
8 0.81
9 0.27

> <PUBCHEM_EFFECTIVE_ROTOR_COUNT>
1

> <PUBCHEM_PHARMACOPHORE_FEATURES>
6
1 1 acceptor
1 2 acceptor
1 3 donor
3 1 2 8 anion
3 3 4 5 cation
5 3 4 5 6 7 rings

> <PUBCHEM_HEAVY_ATOM_COUNT>
8

> <PUBCHEM_ATOM_DEF_STEREO_COUNT>
0

> <PUBCHEM_ATOM_UDEF_STEREO_COUNT>
0

> <PUBCHEM_BOND_DEF_STEREO_COUNT>
0

> <PUBCHEM_BOND_UDEF_STEREO_COUNT>
0

> <PUBCHEM_ISOTOPIC_ATOM_COUNT>
0

> <PUBCHEM_COMPONENT_COUNT>
1

> <PUBCHEM_CACTVS_TAUTO_COUNT>
2

> <PUBCHEM_CONFORMER_ID>
0008C37100000001

> <PUBCHEM_MMFF94_ENERGY>
5.2494

> <PUBCHEM_FEATURE_SELFOVERLAP>
30.503

> <PUBCHEM_SHAPE_FINGERPRINT>
14390081 3 18343861130084705192
20096714 4 18411700997576220676
21040471 1 18338517546802591200
23552423 10 18260834778188943598
24536 1 18338502101873393461
29004967 10 18410858746026102234
5084963 1 18271530904460125768

> <PUBCHEM_SHAPE_MULTIPOLES>
142.94
3.07
1.24
0.57
0.47
0.03
0
-0.09
0
0.11
0
-0.04
0
0

> <PUBCHEM_SHAPE_SELFOVERLAP>
298.499

> <PUBCHEM_SHAPE_VOLUME>
82.2

> <PUBCHEM_COORDINATE_TYPE>
2
5
10

$$$$
