574321
     RDKit          3D

 29 30  0  0  0  0  0  0  0  0999 V2000
   -2.9884    1.2032   -2.0990 O   0  0  0  0  0  0  0  0  0  0  0  0
   -0.9074    0.4436   -1.8702 O   0  0  0  0  0  0  0  0  0  0  0  0
   -1.6711   -0.1320    1.0266 N   0  0  0  0  0  0  0  0  09001  0  0
   -3.7344    0.2427    0.3136 N   0  0  0  0  0  0  0  0  0  0  0  0
   -2.4543    0.2634   -0.0388 C   0  0  0  0  0  0  0  0  0  0  0  0
   -2.5130   -0.4340    2.0726 C   0  0  0  0  0  0  0  0  0  0  0  0
   -3.7780   -0.1863    1.6091 C   0  0  0  0  0  0  0  0  0  0  0  0
   -2.0082    0.6242   -1.3673 C   0  0  0  0  0  0  0  0  0  0  0  0
   -2.1491   -0.7795    3.0310 H   0  0  0  0  0  0  0  0  0  0  0  0
   -4.7164   -0.2945    2.1375 H   0  0  0  0  0  0  0  0  0  0  0  0
   -2.5792    1.3733   -2.9680 H   0  0  0  0  0  0  0  0  0  0  0  0
    0.3804    0.9880    0.5815 O   0  0  0  0  0  0  0  0  0  0  0  0
    2.6912   -1.5993   -0.4311 O   0  0  0  0  0  0  0  0  0  0  0  0
    1.0473   -2.2670    1.4524 O   0  0  0  0  0  0  0  0  0  0  0  0
    3.4974    1.0621   -1.3884 O   0  0  0  0  0  0  0  0  0  0  0  0
    1.4900   -0.8269   -0.4496 C   0  0  2  0  0  0  0  0  0  0  0  0
    1.6760    0.5754    0.1223 C   0  0  1  0  0  0  0  0  0  0  0  0
    0.4279   -1.4287    0.4631 C   0  0  2  0  0  0  0  0  0  0  0  0
   -0.2226   -0.2046    1.1256 C   0  0  2  0  0  0  0  0  09002  0  0
    2.2493    1.5501   -0.8998 C   0  0  0  0  0  0  0  0  0  0  0  0
    1.1231   -0.7923   -1.4793 H   0  0  0  0  0  0  0  0  0  0  0  0
    2.3571    0.5340    0.9836 H   0  0  0  0  0  0  0  0  0  0  0  0
   -0.2789   -2.0531   -0.0923 H   0  0  0  0  0  0  0  0  0  0  0  0
    0.0112   -0.1962    2.1988 H   0  0  0  0  0  0  0  0  0  0  0  0
    2.4034    2.5321   -0.4400 H   0  0  0  0  0  0  0  0  0  0  0  0
    1.5659    1.6868   -1.7443 H   0  0  0  0  0  0  0  0  0  0  0  0
    3.3623   -1.0455   -0.8864 H   0  0  0  0  0  0  0  0  0  0  0  0
    1.8751   -2.5844    1.0282 H   0  0  0  0  0  0  0  0  0  0  0  0
    3.8435    1.7457   -1.9916 H   0  0  0  0  0  0  0  0  0  0  0  0
  1  8  1  0
  1 11  1  0
  2  8  2  0
  3  5  1  0
  3  6  1  0
  4  5  2  0
  4  7  1  0
  5  8  1  0
  6  7  2  0
  6  9  1  0
  7 10  1  0
 12 17  1  0
 12 19  1  0
 13 16  1  0
 13 27  1  0
 14 18  1  0
 14 28  1  0
 15 20  1  0
 15 29  1  0
 16 17  1  0
 16 18  1  0
 16 21  1  6
 17 20  1  0
 17 22  1  1
 18 19  1  0
 18 23  1  6
 19 24  1  1
 20 25  1  0
 20 26  1  0
  3 19  1  0
M  END
$$$$
