65031
  -OEChem-02192616123D

 30 31  0     1  0  0  0  0  0999 V2000
   -1.4134    0.5375   -1.0373 O   0  0  0  0  0  0  0  0  0  0  0  0
   -1.1587   -2.3417    1.0834 O   0  0  0  0  0  0  0  0  0  0  0  0
   -3.3777   -1.6063   -0.3192 O   0  0  0  0  0  0  0  0  0  0  0  0
   -2.4226    3.0427   -0.2794 O   0  0  0  0  0  0  0  0  0  0  0  0
    4.5353    0.9614    0.4004 O   0  0  0  0  0  0  0  0  0  0  0  0
    0.7143   -0.1725   -0.2710 N   0  0  0  0  0  0  0  0  0  0  0  0
    3.0601   -0.7146   -0.1563 N   0  0  0  0  0  0  0  0  0  0  0  0
    1.5145   -2.3561   -0.7159 N   0  0  0  0  0  0  0  0  0  0  0  0
   -1.3287   -0.9699    0.7881 C   0  0  2  0  0  0  0  0  0  0  0  0
   -2.7758   -0.6178    0.5161 C   0  0  1  0  0  0  0  0  0  0  0  0
   -0.6512   -0.5642   -0.5113 C   0  0  1  0  0  0  0  0  0  0  0  0
   -2.6447    0.6641   -0.2938 C   0  0  1  0  0  0  0  0  0  0  0  0
   -2.5519    1.9154    0.5691 C   0  0  0  0  0  0  0  0  0  0  0  0
    1.8094   -1.0577   -0.3708 C   0  0  0  0  0  0  0  0  0  0  0  0
    1.0323    1.1338    0.0850 C   0  0  0  0  0  0  0  0  0  0  0  0
    2.2736    1.5629    0.3206 C   0  0  0  0  0  0  0  0  0  0  0  0
    3.3854    0.5830    0.1922 C   0  0  0  0  0  0  0  0  0  0  0  0
   -0.9629   -0.3846    1.6406 H   0  0  0  0  0  0  0  0  0  0  0  0
   -3.3862   -0.5276    1.4183 H   0  0  0  0  0  0  0  0  0  0  0  0
   -0.7191   -1.3464   -1.2736 H   0  0  0  0  0  0  0  0  0  0  0  0
   -3.4483    0.7768   -1.0304 H   0  0  0  0  0  0  0  0  0  0  0  0
   -1.6965    1.8957    1.2488 H   0  0  0  0  0  0  0  0  0  0  0  0
   -3.4638    2.0350    1.1629 H   0  0  0  0  0  0  0  0  0  0  0  0
   -0.2112   -2.4899    1.2427 H   0  0  0  0  0  0  0  0  0  0  0  0
   -2.9189   -1.6208   -1.1755 H   0  0  0  0  0  0  0  0  0  0  0  0
    0.2077    1.8264    0.1631 H   0  0  0  0  0  0  0  0  0  0  0  0
   -2.3769    3.8280    0.2921 H   0  0  0  0  0  0  0  0  0  0  0  0
    2.4971    2.5861    0.5937 H   0  0  0  0  0  0  0  0  0  0  0  0
    2.2620   -3.0355   -0.8137 H   0  0  0  0  0  0  0  0  0  0  0  0
    0.5741   -2.7219   -0.7896 H   0  0  0  0  0  0  0  0  0  0  0  0
  1 11  1  0  0  0  0
  1 12  1  0  0  0  0
  2  9  1  0  0  0  0
  2 24  1  0  0  0  0
  3 10  1  0  0  0  0
  3 25  1  0  0  0  0
  4 13  1  0  0  0  0
  4 27  1  0  0  0  0
  5 17  2  0  0  0  0
  6 11  1  0  0  0  0
  6 14  1  0  0  0  0
  6 15  1  0  0  0  0
  7 14  2  0  0  0  0
  7 17  1  0  0  0  0
  8 14  1  0  0  0  0
  8 29  1  0  0  0  0
  8 30  1  0  0  0  0
  9 10  1  0  0  0  0
  9 11  1  0  0  0  0
  9 18  1  0  0  0  0
 10 12  1  0  0  0  0
 10 19  1  0  0  0  0
 11 20  1  0  0  0  0
 12 13  1  0  0  0  0
 12 21  1  0  0  0  0
 13 22  1  0  0  0  0
 13 23  1  0  0  0  0
 15 16  2  0  0  0  0
 15 26  1  0  0  0  0
 16 17  1  0  0  0  0
 16 28  1  0  0  0  0
M  END
> <PUBCHEM_COMPOUND_CID>
65031

> <PUBCHEM_CONFORMER_RMSD>
0.6

> <PUBCHEM_CONFORMER_DIVERSEORDER>
1
5
3
9
4
6
8
2
7

> <PUBCHEM_MMFF94_PARTIAL_CHARGES>
24
1 -0.56
10 0.28
11 0.65
12 0.28
13 0.28
14 0.55
15 -0.05
16 -0.14
17 0.77
2 -0.68
24 0.4
25 0.4
26 0.15
27 0.4
28 0.15
29 0.4
3 -0.68
30 0.4
4 -0.68
5 -0.57
6 -0.52
7 -0.66
8 -0.85
9 0.28

> <PUBCHEM_EFFECTIVE_ROTOR_COUNT>
3

> <PUBCHEM_PHARMACOPHORE_FEATURES>
12
1 1 acceptor
1 2 acceptor
1 2 donor
1 3 acceptor
1 3 donor
1 4 acceptor
1 4 donor
1 5 acceptor
1 7 donor
1 8 donor
5 1 9 10 11 12 rings
6 6 7 14 15 16 17 rings

> <PUBCHEM_HEAVY_ATOM_COUNT>
17

> <PUBCHEM_ATOM_DEF_STEREO_COUNT>
4

> <PUBCHEM_ATOM_UDEF_STEREO_COUNT>
0

> <PUBCHEM_BOND_DEF_STEREO_COUNT>
0

> <PUBCHEM_BOND_UDEF_STEREO_COUNT>
0

> <PUBCHEM_ISOTOPIC_ATOM_COUNT>
0

> <PUBCHEM_COMPONENT_COUNT>
1

> <PUBCHEM_CACTVS_TAUTO_COUNT>
3

> <PUBCHEM_CONFORMER_ID>
0000FE0700000001

> <PUBCHEM_MMFF94_ENERGY>
56.2024

> <PUBCHEM_FEATURE_SELFOVERLAP>
60.962

> <PUBCHEM_SHAPE_FINGERPRINT>
10366900 7 18339081621942563730
10608611 8 18412262809374065940
12251169 10 18187928442815401666
13024252 1 12035717726678328343
13140716 1 17975985576227936507
13294875 104 17758377592132304841
13380535 76 18409727378504812678
14144814 61 18410856551239850128
15219456 202 18411984633016504782
15279308 16 18413390925547051036
15442244 35 18124596379713455938
15775835 57 17632297929567841550
16945 1 18263942070926241575
18186145 218 18264774250862310940
19049666 15 18337962168570804594
200 152 18130778019053399183
20201158 50 18410294743637180602
20510252 161 18410576193165704721
21501502 16 18409448055259108150
21524375 3 17975419010471396253
23402539 116 18337944710014088575
23493267 7 18334576828741520560
23558518 356 18334863779622237099
23559900 14 18053382103169411518
25 1 18195529190351558316
2748010 2 18339089167994381015
305870 269 18116429233059437737
81228 2 18114476625315954371
8809292 202 18336834082868285266
9709674 26 18411705399976124190

> <PUBCHEM_SHAPE_MULTIPOLES>
305.56
6.16
2.51
0.85
3.49
0.42
0.04
1.51
0.49
-1.29
0.08
-0.24
-0.16
0.58

> <PUBCHEM_SHAPE_SELFOVERLAP>
643.697

> <PUBCHEM_SHAPE_VOLUME>
170.5

> <PUBCHEM_COORDINATE_TYPE>
2
5
10

$$$$
