66950
  -OEChem-02192616123D

 13 13  0     0  0  0  0  0  0999 V2000
    2.3166    1.0033   -0.0004 O   0  0  0  0  0  0  0  0  0  0  0  0
    0.0009    1.0006    0.0002 N   0  0  0  0  0  0  0  0  0  0  0  0
   -1.2194   -1.0146   -0.0002 N   0  0  0  0  0  0  0  0  0  0  0  0
   -2.3366    1.0482   -0.0001 N   0  0  0  0  0  0  0  0  0  0  0  0
   -1.1952    0.2906    0.0000 C   0  0  0  0  0  0  0  0  0  0  0  0
    1.2474    0.4030    0.0003 C   0  0  0  0  0  0  0  0  0  0  0  0
    1.1947   -1.0733    0.0001 C   0  0  0  0  0  0  0  0  0  0  0  0
   -0.0083   -1.6577    0.0000 C   0  0  0  0  0  0  0  0  0  0  0  0
   -0.0429    2.0153    0.0001 H   0  0  0  0  0  0  0  0  0  0  0  0
    2.1178   -1.6383    0.0001 H   0  0  0  0  0  0  0  0  0  0  0  0
   -0.0675   -2.7415   -0.0001 H   0  0  0  0  0  0  0  0  0  0  0  0
   -3.2540    0.6158   -0.0004 H   0  0  0  0  0  0  0  0  0  0  0  0
   -2.2989    2.0616   -0.0002 H   0  0  0  0  0  0  0  0  0  0  0  0
  1  6  2  0  0  0  0
  2  5  1  0  0  0  0
  2  6  1  0  0  0  0
  2  9  1  0  0  0  0
  3  5  2  0  0  0  0
  3  8  1  0  0  0  0
  4  5  1  0  0  0  0
  4 12  1  0  0  0  0
  4 13  1  0  0  0  0
  6  7  1  0  0  0  0
  7  8  2  0  0  0  0
  7 10  1  0  0  0  0
  8 11  1  0  0  0  0
M  END
> <PUBCHEM_COMPOUND_CID>
66950

> <PUBCHEM_CONFORMER_RMSD>
0.4

> <PUBCHEM_CONFORMER_DIVERSEORDER>
1

> <PUBCHEM_MMFF94_PARTIAL_CHARGES>
13
1 -0.57
10 0.15
11 0.15
12 0.4
13 0.4
2 -0.49
3 -0.62
4 -0.85
5 0.56
6 0.62
7 -0.14
8 0.02
9 0.37

> <PUBCHEM_EFFECTIVE_ROTOR_COUNT>
0

> <PUBCHEM_PHARMACOPHORE_FEATURES>
4
1 1 acceptor
1 2 donor
1 4 donor
6 2 3 5 6 7 8 rings

> <PUBCHEM_HEAVY_ATOM_COUNT>
8

> <PUBCHEM_ATOM_DEF_STEREO_COUNT>
0

> <PUBCHEM_ATOM_UDEF_STEREO_COUNT>
0

> <PUBCHEM_BOND_DEF_STEREO_COUNT>
0

> <PUBCHEM_BOND_UDEF_STEREO_COUNT>
0

> <PUBCHEM_ISOTOPIC_ATOM_COUNT>
0

> <PUBCHEM_COMPONENT_COUNT>
1

> <PUBCHEM_CACTVS_TAUTO_COUNT>
6

> <PUBCHEM_CONFORMER_ID>
0001058600000001

> <PUBCHEM_MMFF94_ENERGY>
17.4234

> <PUBCHEM_FEATURE_SELFOVERLAP>
20.34

> <PUBCHEM_SHAPE_FINGERPRINT>
16714656 1 18050574233248238422
18185500 45 17402614047882206419
20096714 4 18410856521011600587
21040471 1 18410856576930461024
23552423 10 18260832652464981718
29004967 10 17975139734042953787

> <PUBCHEM_SHAPE_MULTIPOLES>
143.82
2.51
1.6
0.57
0.34
0.43
0
-1.04
0
-0.15
0
-0.01
0.03
0

> <PUBCHEM_SHAPE_SELFOVERLAP>
296.492

> <PUBCHEM_SHAPE_VOLUME>
81.5

> <PUBCHEM_COORDINATE_TYPE>
2
5
10

$$$$
