66950
     RDKit          3D

 35 36  0  0  0  0  0  0  0  0999 V2000
    0.0809    1.6516    0.8548 O   0  0  0  0  0  0  0  0  0  0  0  0
   -1.5788    0.0106    0.8042 N   0  0  0  0  0  0  0  0  09001  0  0
   -3.7704    0.7335    1.3075 N   0  0  0  0  0  0  0  0  0  0  0  0
   -3.5345   -1.1664    0.1039 N   0  0  0  0  0  0  0  0  0  0  0  0
   -2.9565   -0.1214    0.7623 C   0  0  0  0  0  0  0  0  0  0  0  0
   -1.0367    1.2296    1.1559 C   0  0  0  0  0  0  0  0  0  0  0  0
   -1.9289    2.1212    1.9113 C   0  0  0  0  0  0  0  0  0  0  0  0
   -3.2210    1.8047    1.9493 C   0  0  0  0  0  0  0  0  0  0  0  0
   -1.5120    2.9947    2.3903 H   0  0  0  0  0  0  0  0  0  0  0  0
   -3.9159    2.4349    2.4947 H   0  0  0  0  0  0  0  0  0  0  0  0
   -3.1181   -1.3749   -0.8007 H   0  0  0  0  0  0  0  0  0  0  0  0
   -4.5344   -1.0066    0.0051 H   0  0  0  0  0  0  0  0  0  0  0  0
    3.1562    1.6145    0.2946 P   0  0  0  0  0  0  0  0  0  0  0  0
    0.5078   -1.1741    0.9163 O   0  0  0  0  0  0  0  0  0  0  0  0
    0.2476   -3.0566   -1.6679 O   0  0  0  0  0  0  0  0  0  0  0  0
   -1.4428   -1.0563   -2.1498 O   0  0  0  0  0  0  0  0  0  0  0  0
    2.4804    0.3886   -0.4771 O   0  0  0  0  0  0  0  0  0  0  0  0
    2.1529    2.7930   -0.1132 O   0  0  0  0  0  0  0  0  0  0  0  0
    4.3851    2.0105   -0.6450 O   0  0  0  0  0  0  0  0  0  0  0  0
    3.4342    1.5269    1.7506 O   0  0  0  0  0  0  0  0  0  0  0  0
    0.7790   -1.7486   -1.4071 C   0  0  2  0  0  0  0  0  0  0  0  0
    1.4574   -1.7405   -0.0302 C   0  0  1  0  0  0  0  0  0  0  0  0
   -0.3702   -0.7660   -1.2426 C   0  0  2  0  0  0  0  0  0  0  0  0
   -0.7375   -1.0197    0.2184 C   0  0  2  0  0  0  0  0  09002  0  0
    2.7428   -0.9157    0.0060 C   0  0  0  0  0  0  0  0  0  0  0  0
    1.4451   -1.5049   -2.2387 H   0  0  0  0  0  0  0  0  0  0  0  0
    1.6802   -2.7566    0.3106 H   0  0  0  0  0  0  0  0  0  0  0  0
   -0.0331    0.2646   -1.3983 H   0  0  0  0  0  0  0  0  0  0  0  0
   -1.2575   -1.9803    0.3148 H   0  0  0  0  0  0  0  0  0  0  0  0
    3.5082   -1.3688   -0.6324 H   0  0  0  0  0  0  0  0  0  0  0  0
    3.1221   -0.8810    1.0319 H   0  0  0  0  0  0  0  0  0  0  0  0
   -0.5439   -2.9294   -2.2279 H   0  0  0  0  0  0  0  0  0  0  0  0
   -1.2568   -0.5519   -2.9636 H   0  0  0  0  0  0  0  0  0  0  0  0
    1.2831    2.5925    0.3208 H   0  0  0  0  0  0  0  0  0  0  0  0
    4.2859    2.9485   -0.9089 H   0  0  0  0  0  0  0  0  0  0  0  0
  1  6  2  0
  2  5  1  0
  2  6  1  0
  3  5  2  0
  3  8  1  0
  4  5  1  0
  4 11  1  0
  4 12  1  0
  6  7  1  0
  7  8  2  0
  7  9  1  0
  8 10  1  0
 13 17  1  0
 13 18  1  0
 13 19  1  0
 13 20  2  0
 14 22  1  0
 14 24  1  0
 15 21  1  0
 15 32  1  0
 16 23  1  0
 16 33  1  0
 17 25  1  0
 18 34  1  0
 19 35  1  0
 21 22  1  0
 21 23  1  0
 21 26  1  6
 22 25  1  0
 22 27  1  1
 23 24  1  0
 23 28  1  1
 24 29  1  6
 25 30  1  0
 25 31  1  0
  2 24  1  0
M  END
$$$$
