7955
     RDKit          3D

 37 38  0  0  0  0  0  0  0  0999 V2000
   -3.1353    2.0190    0.1719 N   0  0  0  0  0  0  0  0  0  0  0  0
   -3.0080   -0.3221    0.1583 N   0  0  0  0  0  0  0  0  0  0  0  0
   -4.9967    0.7406    0.8087 N   0  0  0  0  0  0  0  0  0  0  0  0
   -1.1741    1.0054   -0.4781 N   0  0  0  0  0  0  0  0  0  0  0  0
   -5.1054    3.0471    0.8039 N   0  0  0  0  0  0  0  0  0  0  0  0
   -4.8568   -1.5637    0.7782 N   0  0  0  0  0  0  0  0  0  0  0  0
   -2.4856    0.8839   -0.0318 C   0  0  0  0  0  0  0  0  0  0  0  0
   -4.3881    1.8900    0.5754 C   0  0  0  0  0  0  0  0  0  0  0  0
   -4.2614   -0.3320    0.5813 C   0  0  0  0  0  0  0  0  0  0  0  0
   -0.8888    1.9595   -0.2830 H   0  0  0  0  0  0  0  0  0  0  0  0
   -4.4851    3.8242    0.9837 H   0  0  0  0  0  0  0  0  0  0  0  0
   -5.8498    2.8819    1.4668 H   0  0  0  0  0  0  0  0  0  0  0  0
   -4.4478   -2.2564    0.1669 H   0  0  0  0  0  0  0  0  0  0  0  0
   -5.8631   -1.4650    0.7349 H   0  0  0  0  0  0  0  0  0  0  0  0
    5.3182    0.2845    0.1738 P   0  0  0  0  0  0  0  0  0  0  0  0
    1.0334    0.6410    0.0997 O   0  0  0  0  0  0  0  0  0  0  0  0
    1.6623   -2.3783   -1.7866 O   0  0  0  0  0  0  0  0  0  0  0  0
   -0.1111   -2.4175    0.1873 O   0  0  0  0  0  0  0  0  0  0  0  0
    3.9374    1.0018   -0.1863 O   0  0  0  0  0  0  0  0  0  0  0  0
    4.8963   -1.0934    0.8573 O   0  0  0  0  0  0  0  0  0  0  0  0
    5.8442    1.1203    1.4269 O   0  0  0  0  0  0  0  0  0  0  0  0
    6.3190    0.1504   -0.9184 O   0  0  0  0  0  0  0  0  0  0  0  0
    1.0877   -1.1217   -1.4520 C   0  0  2  0  0  0  0  0  0  0  0  0
    1.9369   -0.3237   -0.4764 C   0  0  1  0  0  0  0  0  0  0  0  0
   -0.2107   -1.2690   -0.6795 C   0  0  2  0  0  0  0  0  0  0  0  0
   -0.2764    0.0501    0.1206 C   0  0  2  0  0  0  0  0  0  0  0  0
    3.1068    0.3790   -1.1602 C   0  0  0  0  0  0  0  0  0  0  0  0
    0.9138   -0.5492   -2.3709 H   0  0  0  0  0  0  0  0  0  0  0  0
    2.3089   -0.9557    0.3390 H   0  0  0  0  0  0  0  0  0  0  0  0
   -1.0605   -1.4469   -1.3458 H   0  0  0  0  0  0  0  0  0  0  0  0
   -0.5132   -0.1307    1.1773 H   0  0  0  0  0  0  0  0  0  0  0  0
    3.6921   -0.3247   -1.7620 H   0  0  0  0  0  0  0  0  0  0  0  0
    2.7434    1.1734   -1.8204 H   0  0  0  0  0  0  0  0  0  0  0  0
    1.3828   -2.9875   -1.0704 H   0  0  0  0  0  0  0  0  0  0  0  0
   -0.9639   -2.4698    0.6607 H   0  0  0  0  0  0  0  0  0  0  0  0
    5.6832   -1.6192    1.0856 H   0  0  0  0  0  0  0  0  0  0  0  0
    6.2153    1.9744    1.1421 H   0  0  0  0  0  0  0  0  0  0  0  0
  1  7  2  0
  1  8  1  0
  2  7  1  0
  2  9  2  0
  3  8  2  0
  3  9  1  0
  4  7  1  0
  4 10  1  0
  5  8  1  0
  5 11  1  0
  5 12  1  0
  6  9  1  0
  6 13  1  0
  6 14  1  0
 15 19  1  0
 15 20  1  0
 15 21  1  0
 15 22  2  0
 16 24  1  0
 16 26  1  0
 17 23  1  0
 17 34  1  0
 18 25  1  0
 18 35  1  0
 19 27  1  0
 20 36  1  0
 21 37  1  0
 23 24  1  0
 23 25  1  0
 23 28  1  6
 24 27  1  0
 24 29  1  1
 25 26  1  0
 25 30  1  6
 26 31  1  1
 27 32  1  0
 27 33  1  0
  4 26  1  0
M  END
$$$$
