7955
     RDKit          3D

 32 33  0  0  0  0  0  0  0  0999 V2000
    2.3477   -0.3416    1.1385 N   0  0  0  0  0  0  0  0  0  0  0  0
    1.9472    0.9077   -0.8015 N   0  0  0  0  0  0  0  0  0  0  0  0
    4.0363   -0.1080   -0.4737 N   0  0  0  0  0  0  0  0  0  0  0  0
    0.3045    0.6480    0.8509 N   0  0  0  0  0  0  0  0  0  0  0  0
    4.4071   -1.3421    1.4430 N   0  0  0  0  0  0  0  0  0  0  0  0
    3.6167    1.1211   -2.3831 N   0  0  0  0  0  0  0  0  0  0  0  0
    1.5757    0.4081    0.3680 C   0  0  0  0  0  0  0  0  0  0  0  0
    3.5610   -0.5758    0.6665 C   0  0  0  0  0  0  0  0  0  0  0  0
    3.1805    0.6115   -1.1768 C   0  0  0  0  0  0  0  0  0  0  0  0
    0.1003    0.0082    1.6051 H   0  0  0  0  0  0  0  0  0  0  0  0
    5.3726   -1.1484    1.2165 H   0  0  0  0  0  0  0  0  0  0  0  0
    4.1395   -1.2983    2.4161 H   0  0  0  0  0  0  0  0  0  0  0  0
    3.0990    1.9513   -2.6337 H   0  0  0  0  0  0  0  0  0  0  0  0
    4.6254    1.1764   -2.4042 H   0  0  0  0  0  0  0  0  0  0  0  0
   -1.9425    1.1544    0.6180 O   0  0  0  0  0  0  0  0  0  0  0  0
   -2.8744   -1.9729   -0.9371 O   0  0  0  0  0  0  0  0  0  0  0  0
   -1.6964    0.0283   -2.2558 O   0  0  0  0  0  0  0  0  0  0  0  0
   -4.1982    0.8442    2.2845 O   0  0  0  0  0  0  0  0  0  0  0  0
   -2.0691   -1.0909   -0.1681 C   0  0  2  0  0  0  0  0  0  0  0  0
   -2.8666    0.0572    0.4312 C   0  0  1  0  0  0  0  0  0  0  0  0
   -1.0556   -0.3408   -1.0143 C   0  0  2  0  0  0  0  0  0  0  0  0
   -0.7345    0.8745   -0.1195 C   0  0  2  0  0  0  0  0  0  0  0  0
   -3.5032   -0.2933    1.7723 C   0  0  0  0  0  0  0  0  0  0  0  0
   -1.5595   -1.6665    0.6132 H   0  0  0  0  0  0  0  0  0  0  0  0
   -3.6470    0.4100   -0.2545 H   0  0  0  0  0  0  0  0  0  0  0  0
   -0.1943   -0.9595   -1.2791 H   0  0  0  0  0  0  0  0  0  0  0  0
   -0.5219    1.7682   -0.7178 H   0  0  0  0  0  0  0  0  0  0  0  0
   -2.7435   -0.5673    2.5117 H   0  0  0  0  0  0  0  0  0  0  0  0
   -4.2156   -1.1172    1.6730 H   0  0  0  0  0  0  0  0  0  0  0  0
   -2.8222   -1.6530   -1.8624 H   0  0  0  0  0  0  0  0  0  0  0  0
   -2.0931    0.9130   -2.1497 H   0  0  0  0  0  0  0  0  0  0  0  0
   -3.5759    1.5936    2.2109 H   0  0  0  0  0  0  0  0  0  0  0  0
  1  7  2  0
  1  8  1  0
  2  7  1  0
  2  9  2  0
  3  8  2  0
  3  9  1  0
  4  7  1  0
  4 10  1  0
  5  8  1  0
  5 11  1  0
  5 12  1  0
  6  9  1  0
  6 13  1  0
  6 14  1  0
 15 20  1  0
 15 22  1  0
 16 19  1  0
 16 30  1  0
 17 21  1  0
 17 31  1  0
 18 23  1  0
 18 32  1  0
 19 20  1  0
 19 21  1  0
 19 24  1  1
 20 23  1  0
 20 25  1  6
 21 22  1  0
 21 26  1  6
 22 27  1  6
 23 28  1  0
 23 29  1  0
  4 22  1  0
M  END
$$$$
