1044
     RDKit          3D

 35 37  0  0  0  0  0  0  0  0999 V2000
   -2.0804   -0.4433   -0.3831 N   0  0  0  0  0  0  0  0  09001  0  0
   -3.4781    0.0542   -2.0476 N   0  0  0  0  0  0  0  0  0  0  0  0
   -4.0348    2.2798   -1.3288 N   0  0  0  0  0  0  0  0  0  0  0  0
   -2.9768    2.9577    0.7329 N   0  0  0  0  0  0  0  0  0  0  0  0
   -2.5327    0.8261   -0.1285 C   0  0  0  0  0  0  0  0  0  0  0  0
   -3.3850    1.1106   -1.1860 C   0  0  0  0  0  0  0  0  0  0  0  0
   -2.3408    1.7738    0.8568 C   0  0  0  0  0  0  0  0  0  0  0  0
   -2.7003   -0.8710   -1.5339 C   0  0  0  0  0  0  0  0  0  0  0  0
   -3.7775    3.1406   -0.3377 C   0  0  0  0  0  0  0  0  0  0  0  0
   -1.7179    1.6393    1.7304 H   0  0  0  0  0  0  0  0  0  0  0  0
   -2.5403   -1.8578   -1.9543 H   0  0  0  0  0  0  0  0  0  0  0  0
   -4.2728    4.1044   -0.4010 H   0  0  0  0  0  0  0  0  0  0  0  0
    3.6396    0.7169   -0.5191 P   0  0  0  0  0  0  0  0  0  0  0  0
   -0.5652   -0.4935    1.4548 O   0  0  0  0  0  0  0  0  0  0  0  0
    0.9279   -3.1080    1.3027 O   0  0  0  0  0  0  0  0  0  0  0  0
   -0.2725   -3.0797   -1.0416 O   0  0  0  0  0  0  0  0  0  0  0  0
    2.9176    0.5109    0.8934 O   0  0  0  0  0  0  0  0  0  0  0  0
    5.1852    0.5423   -0.1875 O   0  0  0  0  0  0  0  0  0  0  0  0
    3.5457    2.2802   -0.8068 O   0  0  0  0  0  0  0  0  0  0  0  0
    3.1039   -0.1182   -1.6280 O   0  0  0  0  0  0  0  0  0  0  0  0
    1.1304   -1.8929    0.5547 C   0  0  2  0  0  0  0  0  0  0  0  0
    0.8679   -0.6707    1.4304 C   0  0  1  0  0  0  0  0  0  0  0  0
    0.0123   -1.8052   -0.4675 C   0  0  2  0  0  0  0  0  0  0  0  0
   -1.1484   -1.2658    0.3799 C   0  0  2  0  0  0  0  0  09002  0  0
    1.5056    0.6233    0.9165 C   0  0  0  0  0  0  0  0  0  0  0  0
    2.1263   -1.9485    0.1104 H   0  0  0  0  0  0  0  0  0  0  0  0
    1.2007   -0.8582    2.4570 H   0  0  0  0  0  0  0  0  0  0  0  0
    0.2774   -1.1087   -1.2707 H   0  0  0  0  0  0  0  0  0  0  0  0
   -1.7459   -2.0707    0.8264 H   0  0  0  0  0  0  0  0  0  0  0  0
    1.2429    1.4490    1.5869 H   0  0  0  0  0  0  0  0  0  0  0  0
    1.1055    0.8990   -0.0660 H   0  0  0  0  0  0  0  0  0  0  0  0
    1.6605   -3.1777    1.9437 H   0  0  0  0  0  0  0  0  0  0  0  0
   -0.0160   -3.7389   -0.3616 H   0  0  0  0  0  0  0  0  0  0  0  0
    5.4674    1.1371    0.5302 H   0  0  0  0  0  0  0  0  0  0  0  0
    3.6683    2.4637   -1.7584 H   0  0  0  0  0  0  0  0  0  0  0  0
  1  5  1  0
  1  8  1  0
  2  6  1  0
  2  8  2  0
  3  6  2  0
  3  9  1  0
  4  7  1  0
  4  9  2  0
  5  6  1  0
  5  7  2  0
  7 10  1  0
  8 11  1  0
  9 12  1  0
 13 17  1  0
 13 18  1  0
 13 19  1  0
 13 20  2  0
 14 22  1  0
 14 24  1  0
 15 21  1  0
 15 32  1  0
 16 23  1  0
 16 33  1  0
 17 25  1  0
 18 34  1  0
 19 35  1  0
 21 22  1  0
 21 23  1  0
 21 26  1  6
 22 25  1  0
 22 27  1  1
 23 24  1  0
 23 28  1  6
 24 29  1  1
 25 30  1  0
 25 31  1  0
  1 24  1  0
M  END
$$$$
