68368
  -OEChem-02192616123D

 30 32  0     1  0  0  0  0  0999 V2000
    1.7661   -0.4894   -0.9456 O   0  0  0  0  0  0  0  0  0  0  0  0
    0.7998    2.2860    1.1242 O   0  0  0  0  0  0  0  0  0  0  0  0
    2.9664    2.2805   -0.5162 O   0  0  0  0  0  0  0  0  0  0  0  0
    3.7216   -2.4111   -0.3576 O   0  0  0  0  0  0  0  0  0  0  0  0
   -0.4456   -0.3765   -0.0936 N   0  0  0  0  0  0  0  0  0  0  0  0
   -1.7321   -2.0982    0.5057 N   0  0  0  0  0  0  0  0  0  0  0  0
   -2.1594    1.2901   -0.5265 N   0  0  0  0  0  0  0  0  0  0  0  0
   -4.3935    0.3893   -0.1345 N   0  0  0  0  0  0  0  0  0  0  0  0
    1.3999    1.0427    0.8228 C   0  0  1  0  0  0  0  0  0  0  0  0
    0.7643    0.3860   -0.3931 C   0  0  1  0  0  0  0  0  0  0  0  0
    2.8426    1.1727    0.3756 C   0  0  1  0  0  0  0  0  0  0  0  0
    3.0571   -0.1173   -0.4098 C   0  0  1  0  0  0  0  0  0  0  0  0
    3.5654   -1.2617    0.4559 C   0  0  0  0  0  0  0  0  0  0  0  0
   -1.7360    0.0688   -0.1677 C   0  0  0  0  0  0  0  0  0  0  0  0
   -0.4969   -1.6843    0.3147 C   0  0  0  0  0  0  0  0  0  0  0  0
   -2.5169   -1.0125    0.2078 C   0  0  0  0  0  0  0  0  0  0  0  0
   -3.8948   -0.8203    0.2172 C   0  0  0  0  0  0  0  0  0  0  0  0
   -3.5079    1.3551   -0.4794 C   0  0  0  0  0  0  0  0  0  0  0  0
    1.3312    0.3968    1.7057 H   0  0  0  0  0  0  0  0  0  0  0  0
    0.4957    1.1153   -1.1672 H   0  0  0  0  0  0  0  0  0  0  0  0
    3.5416    1.3283    1.2024 H   0  0  0  0  0  0  0  0  0  0  0  0
    3.7231    0.0239   -1.2686 H   0  0  0  0  0  0  0  0  0  0  0  0
    2.8645   -1.5147    1.2575 H   0  0  0  0  0  0  0  0  0  0  0  0
    4.5353   -1.0191    0.8998 H   0  0  0  0  0  0  0  0  0  0  0  0
    0.9121    2.8688    0.3541 H   0  0  0  0  0  0  0  0  0  0  0  0
    3.8901    2.3067   -0.8192 H   0  0  0  0  0  0  0  0  0  0  0  0
    0.3905   -2.2848    0.4614 H   0  0  0  0  0  0  0  0  0  0  0  0
    2.8544   -2.6140   -0.7482 H   0  0  0  0  0  0  0  0  0  0  0  0
   -4.6098   -1.5851    0.4909 H   0  0  0  0  0  0  0  0  0  0  0  0
   -3.9420    2.3104   -0.7550 H   0  0  0  0  0  0  0  0  0  0  0  0
  1 10  1  0  0  0  0
  1 12  1  0  0  0  0
  2  9  1  0  0  0  0
  2 25  1  0  0  0  0
  3 11  1  0  0  0  0
  3 26  1  0  0  0  0
  4 13  1  0  0  0  0
  4 28  1  0  0  0  0
  5 10  1  0  0  0  0
  5 14  1  0  0  0  0
  5 15  1  0  0  0  0
  6 15  2  0  0  0  0
  6 16  1  0  0  0  0
  7 14  2  0  0  0  0
  7 18  1  0  0  0  0
  8 17  1  0  0  0  0
  8 18  2  0  0  0  0
  9 10  1  0  0  0  0
  9 11  1  0  0  0  0
  9 19  1  0  0  0  0
 10 20  1  0  0  0  0
 11 12  1  0  0  0  0
 11 21  1  0  0  0  0
 12 13  1  0  0  0  0
 12 22  1  0  0  0  0
 13 23  1  0  0  0  0
 13 24  1  0  0  0  0
 14 16  1  0  0  0  0
 15 27  1  0  0  0  0
 16 17  2  0  0  0  0
 17 29  1  0  0  0  0
 18 30  1  0  0  0  0
M  END
> <PUBCHEM_COMPOUND_CID>
68368

> <PUBCHEM_CONFORMER_RMSD>
0.6

> <PUBCHEM_CONFORMER_DIVERSEORDER>
3
10
12
11
2
13
9
8
5
15
6
1
16
7
4
14

> <PUBCHEM_MMFF94_PARTIAL_CHARGES>
24
1 -0.56
10 0.54
11 0.28
12 0.28
13 0.28
14 0.11
15 0.04
16 0.23
17 0.16
18 0.47
2 -0.68
25 0.4
26 0.4
27 0.15
28 0.4
29 0.15
3 -0.68
30 0.15
4 -0.68
5 0.05
6 -0.57
7 -0.57
8 -0.62
9 0.28

> <PUBCHEM_EFFECTIVE_ROTOR_COUNT>
3

> <PUBCHEM_PHARMACOPHORE_FEATURES>
13
1 1 acceptor
1 2 acceptor
1 2 donor
1 3 acceptor
1 3 donor
1 4 acceptor
1 4 donor
3 5 6 15 cation
3 5 7 14 cation
3 7 8 18 cation
5 1 9 10 11 12 rings
5 5 6 14 15 16 rings
6 7 8 14 16 17 18 rings

> <PUBCHEM_HEAVY_ATOM_COUNT>
18

> <PUBCHEM_ATOM_DEF_STEREO_COUNT>
4

> <PUBCHEM_ATOM_UDEF_STEREO_COUNT>
0

> <PUBCHEM_BOND_DEF_STEREO_COUNT>
0

> <PUBCHEM_BOND_UDEF_STEREO_COUNT>
0

> <PUBCHEM_ISOTOPIC_ATOM_COUNT>
0

> <PUBCHEM_COMPONENT_COUNT>
1

> <PUBCHEM_CACTVS_TAUTO_COUNT>
1

> <PUBCHEM_CONFORMER_ID>
00010B1000000003

> <PUBCHEM_MMFF94_ENERGY>
40.9542

> <PUBCHEM_FEATURE_SELFOVERLAP>
66.592

> <PUBCHEM_SHAPE_FINGERPRINT>
10130415 120 18342457015318394680
10608611 8 18338514252357265157
10922523 26 18408321090221475254
1100329 8 16609977137552113346
12403259 226 18410851071188588965
12403259 415 18187361000616651253
124424 183 18341891870399360070
12500047 106 18337105790773035526
12507560 14 18130504145847237166
12932764 1 17916586599362382046
13134695 92 17774427309687374544
13571099 22 18412545379804677482
14115302 16 18188219714712994878
14866123 147 16973369063712085354
15196674 1 18409166623727819213
15219456 202 18412544348653765365
15442244 35 18338800018132788208
15536298 74 18410007736784764754
16945 1 18269287763284710926
17804303 29 18334861580135011407
18186145 218 18341337712397000461
19049666 15 18411135865689684048
200 152 17632853127490448095
20510252 161 18409732906649910409
20645477 70 18343867718738675790
21501502 16 18340482395245235078
21524375 3 18336262349965524791
23402539 116 18129932391374071237
23419403 2 17484484921207052200
23559900 14 18411980252613891552
3004659 81 17969792870003165518
3286 77 18273208712270889933
335352 9 18265332802959053935
474 4 16010447995996582020
495365 180 17703214209087786040
5104073 3 18409450301901421323
57426455 114 18410848854484492835
633830 44 18259978271731910575
69090 78 18343297102537630335
7364860 26 18411138073925288148
74978 22 18408323297892648634
81228 2 17827072111304152963
8809292 202 18409451366604981954
9709674 26 18336267937153870722

> <PUBCHEM_SHAPE_MULTIPOLES>
327.03
7.45
2.29
0.83
1.86
0.06
0.06
0.59
-0.49
-1.23
0.21
-0.24
-0.16
0.58

> <PUBCHEM_SHAPE_SELFOVERLAP>
712.374

> <PUBCHEM_SHAPE_VOLUME>
175.7

> <PUBCHEM_COORDINATE_TYPE>
2
5
10

$$$$
