13863
     RDKit          3D

 33 34  0  0  0  0  0  0  0  0999 V2000
    2.6085    1.6399   -0.1336 N   0  0  0  0  0  0  0  0  0  0  0  0
    3.3725   -0.5847   -0.1811 N   0  0  0  0  0  0  0  0  0  0  0  0
    0.4158    2.2463   -0.5186 N   0  0  0  0  0  0  0  0  0  0  0  0
    2.0009   -2.3604   -0.6544 N   0  0  0  0  0  0  0  0  0  0  0  0
    4.8311    1.1544    0.2967 N   0  0  0  0  0  0  0  0  0  0  0  0
    1.3686    1.2249   -0.4332 C   0  0  0  0  0  0  0  0  0  0  0  0
    2.1335   -0.9796   -0.4913 C   0  0  0  0  0  0  0  0  0  0  0  0
    1.0492   -0.1153   -0.6052 C   0  0  0  0  0  0  0  0  0  0  0  0
    3.5621    0.7222   -0.0333 C   0  0  0  0  0  0  0  0  0  0  0  0
   -0.2763    2.1470    0.2298 H   0  0  0  0  0  0  0  0  0  0  0  0
   -0.1320    2.1017   -1.3668 H   0  0  0  0  0  0  0  0  0  0  0  0
    2.9338   -2.7585   -0.5562 H   0  0  0  0  0  0  0  0  0  0  0  0
    1.5990   -2.6099   -1.5527 H   0  0  0  0  0  0  0  0  0  0  0  0
    4.7619    2.0564    0.7485 H   0  0  0  0  0  0  0  0  0  0  0  0
    5.3265    0.4236    0.7856 H   0  0  0  0  0  0  0  0  0  0  0  0
   -1.3153    0.3761   -1.1570 O   0  0  0  0  0  0  0  0  0  0  0  0
   -2.8490   -1.4020    1.5993 O   0  0  0  0  0  0  0  0  0  0  0  0
   -1.6512   -2.6542   -0.4478 O   0  0  0  0  0  0  0  0  0  0  0  0
   -2.0051    2.2503    0.9533 O   0  0  0  0  0  0  0  0  0  0  0  0
   -1.8446   -0.6639    0.9074 C   0  0  2  0  0  0  0  0  0  0  0  0
   -2.4103    0.1672   -0.2360 C   0  0  1  0  0  0  0  0  0  0  0  0
   -0.9003   -1.5856    0.1599 C   0  0  2  0  0  0  0  0  0  0  0  0
   -0.3231   -0.6620   -0.9288 C   0  0  2  0  0  0  0  0  0  0  0  0
   -2.9827    1.5097    0.2174 C   0  0  0  0  0  0  0  0  0  0  0  0
   -1.2855   -0.0480    1.6209 H   0  0  0  0  0  0  0  0  0  0  0  0
   -3.1951   -0.3807   -0.7724 H   0  0  0  0  0  0  0  0  0  0  0  0
   -0.1721   -2.0526    0.8277 H   0  0  0  0  0  0  0  0  0  0  0  0
   -0.2498   -1.1953   -1.8850 H   0  0  0  0  0  0  0  0  0  0  0  0
   -3.2650    2.1117   -0.6522 H   0  0  0  0  0  0  0  0  0  0  0  0
   -3.8571    1.3636    0.8587 H   0  0  0  0  0  0  0  0  0  0  0  0
   -2.4428   -1.7309    2.4228 H   0  0  0  0  0  0  0  0  0  0  0  0
   -2.4028   -2.8298    0.1534 H   0  0  0  0  0  0  0  0  0  0  0  0
   -2.4035    3.1184    1.1514 H   0  0  0  0  0  0  0  0  0  0  0  0
  1  6  2  0
  1  9  1  0
  2  7  1  0
  2  9  2  0
  3  6  1  0
  3 10  1  0
  3 11  1  0
  4  7  1  0
  4 12  1  0
  4 13  1  0
  5  9  1  0
  5 14  1  0
  5 15  1  0
  6  8  1  0
  7  8  2  0
 16 21  1  0
 16 23  1  0
 17 20  1  0
 17 31  1  0
 18 22  1  0
 18 32  1  0
 19 24  1  0
 19 33  1  0
 20 21  1  0
 20 22  1  0
 20 25  1  1
 21 24  1  0
 21 26  1  6
 22 23  1  0
 22 27  1  1
 23 28  1  6
 24 29  1  0
 24 30  1  0
  8 23  1  0
M  END
$$$$
