13863
     RDKit          3D

 38 39  0  0  0  0  0  0  0  0999 V2000
   -2.7423    2.0736    0.0540 N   0  0  0  0  0  0  0  0  0  0  0  0
   -4.2735    0.2770    0.0349 N   0  0  0  0  0  0  0  0  0  0  0  0
   -0.4710    1.7668    0.2850 N   0  0  0  0  0  0  0  0  0  0  0  0
   -3.6245   -1.9166    0.2909 N   0  0  0  0  0  0  0  0  0  0  0  0
   -5.0106    2.4576   -0.2372 N   0  0  0  0  0  0  0  0  0  0  0  0
   -1.7470    1.2036    0.2675 C   0  0  0  0  0  0  0  0  0  0  0  0
   -3.2567   -0.5719    0.2262 C   0  0  0  0  0  0  0  0  0  0  0  0
   -1.9426   -0.1606    0.3831 C   0  0  0  0  0  0  0  0  0  0  0  0
   -3.9693    1.5695   -0.0545 C   0  0  0  0  0  0  0  0  0  0  0  0
   -0.5739    2.7772    0.2813 H   0  0  0  0  0  0  0  0  0  0  0  0
    0.0643    1.4255    1.0836 H   0  0  0  0  0  0  0  0  0  0  0  0
   -3.0955   -2.5025   -0.3486 H   0  0  0  0  0  0  0  0  0  0  0  0
   -4.6231   -1.9692    0.1028 H   0  0  0  0  0  0  0  0  0  0  0  0
   -5.8663    2.0505    0.1130 H   0  0  0  0  0  0  0  0  0  0  0  0
   -4.7481    3.3650    0.1202 H   0  0  0  0  0  0  0  0  0  0  0  0
    4.0838    1.2571    0.0325 P   0  0  0  0  0  0  0  0  0  0  0  0
    0.2190   -0.6419    1.4634 O   0  0  0  0  0  0  0  0  0  0  0  0
    2.1718   -1.8271   -1.3441 O   0  0  0  0  0  0  0  0  0  0  0  0
   -0.1484   -3.0245   -0.8243 O   0  0  0  0  0  0  0  0  0  0  0  0
    2.7440    0.9255    0.8396 O   0  0  0  0  0  0  0  0  0  0  0  0
    4.1009    0.1805   -1.1548 O   0  0  0  0  0  0  0  0  0  0  0  0
    3.7133    2.5906   -0.7556 O   0  0  0  0  0  0  0  0  0  0  0  0
    5.3483    1.3293    0.8088 O   0  0  0  0  0  0  0  0  0  0  0  0
    1.2422   -1.0528   -0.5945 C   0  0  2  0  0  0  0  0  0  0  0  0
    1.4564   -1.1374    0.9106 C   0  0  1  0  0  0  0  0  0  0  0  0
   -0.1751   -1.5911   -0.7244 C   0  0  2  0  0  0  0  0  0  0  0  0
   -0.8366   -1.1541    0.5975 C   0  0  2  0  0  0  0  0  0  0  0  0
    2.6531   -0.3559    1.4470 C   0  0  0  0  0  0  0  0  0  0  0  0
    1.2566   -0.0187   -0.9559 H   0  0  0  0  0  0  0  0  0  0  0  0
    1.5668   -2.1802    1.2375 H   0  0  0  0  0  0  0  0  0  0  0  0
   -0.6764   -1.2249   -1.6260 H   0  0  0  0  0  0  0  0  0  0  0  0
   -1.2267   -2.0277    1.1338 H   0  0  0  0  0  0  0  0  0  0  0  0
    2.5515   -0.1993    2.5255 H   0  0  0  0  0  0  0  0  0  0  0  0
    3.5737   -0.9239    1.2719 H   0  0  0  0  0  0  0  0  0  0  0  0
    2.9700   -1.2597   -1.4308 H   0  0  0  0  0  0  0  0  0  0  0  0
    0.6676   -3.2211   -1.3326 H   0  0  0  0  0  0  0  0  0  0  0  0
    4.8834    0.3414   -1.7184 H   0  0  0  0  0  0  0  0  0  0  0  0
    3.7410    3.3704   -0.1716 H   0  0  0  0  0  0  0  0  0  0  0  0
  1  6  2  0
  1  9  1  0
  2  7  1  0
  2  9  2  0
  3  6  1  0
  3 10  1  0
  3 11  1  0
  4  7  1  0
  4 12  1  0
  4 13  1  0
  5  9  1  0
  5 14  1  0
  5 15  1  0
  6  8  1  0
  7  8  2  0
 16 20  1  0
 16 21  1  0
 16 22  1  0
 16 23  2  0
 17 25  1  0
 17 27  1  0
 18 24  1  0
 18 35  1  0
 19 26  1  0
 19 36  1  0
 20 28  1  0
 21 37  1  0
 22 38  1  0
 24 25  1  0
 24 26  1  0
 24 29  1  6
 25 28  1  0
 25 30  1  1
 26 27  1  0
 26 31  1  6
 27 32  1  1
 28 33  1  0
 28 34  1  0
  8 27  1  0
M  END
$$$$
