12803287
  -OEChem-04062613293D

 37 38  0     1  0  0  0  0  0999 V2000
    3.7465   -1.3995   -0.0845 P   0  0  0  0  0  0  0  0  0  0  0  0
    0.4257    1.1492   -1.1325 O   0  0  0  0  0  0  0  0  0  0  0  0
   -1.4281    3.0961    1.2407 O   0  0  0  0  0  0  0  0  0  0  0  0
    0.6361    4.0176   -0.2852 O   0  0  0  0  0  0  0  0  0  0  0  0
    2.8522   -0.1654   -0.6313 O   0  0  0  0  0  0  0  0  0  0  0  0
   -3.6592    1.3322   -0.5396 O   0  0  0  0  0  0  0  0  0  0  0  0
   -3.5952   -3.1930    0.2775 O   0  0  0  0  0  0  0  0  0  0  0  0
    2.7930   -2.1075    1.0132 O   0  0  0  0  0  0  0  0  0  0  0  0
    4.8678   -0.6618    0.8174 O   0  0  0  0  0  0  0  0  0  0  0  0
    4.2868   -2.3104   -1.1479 O   0  0  0  0  0  0  0  0  0  0  0  0
   -1.5824    0.2935   -0.2957 N   0  0  0  0  0  0  0  0  0  0  0  0
   -3.6127   -0.9243   -0.1311 N   0  0  0  0  0  0  0  0  0  0  0  0
   -0.4509    2.1666    0.8198 C   0  0  2  0  0  0  0  0  0  0  0  0
    0.8650    2.8319    0.4759 C   0  0  1  0  0  0  0  0  0  0  0  0
    1.5123    1.8033   -0.4413 C   0  0  1  0  0  0  0  0  0  0  0  0
   -0.8140    1.4899   -0.4907 C   0  0  1  0  0  0  0  0  0  0  0  0
    2.3045    0.7414    0.3095 C   0  0  0  0  0  0  0  0  0  0  0  0
   -0.9075   -0.8992   -0.0619 C   0  0  0  0  0  0  0  0  0  0  0  0
   -2.9943    0.3139   -0.3376 C   0  0  0  0  0  0  0  0  0  0  0  0
   -1.5024   -2.0822    0.1354 C   0  0  0  0  0  0  0  0  0  0  0  0
   -2.9881   -2.1396    0.1049 C   0  0  0  0  0  0  0  0  0  0  0  0
   -0.7550   -3.3526    0.3851 C   0  0  0  0  0  0  0  0  0  0  0  0
   -0.2976    1.4378    1.6248 H   0  0  0  0  0  0  0  0  0  0  0  0
    1.4633    3.1066    1.3484 H   0  0  0  0  0  0  0  0  0  0  0  0
   -1.3687    2.1670   -1.1513 H   0  0  0  0  0  0  0  0  0  0  0  0
    2.1422    2.2663   -1.2095 H   0  0  0  0  0  0  0  0  0  0  0  0
    1.6877    0.1974    1.0285 H   0  0  0  0  0  0  0  0  0  0  0  0
    3.1216    1.2206    0.8589 H   0  0  0  0  0  0  0  0  0  0  0  0
   -2.2618    2.6098    1.3584 H   0  0  0  0  0  0  0  0  0  0  0  0
    0.1974    3.7794   -1.1189 H   0  0  0  0  0  0  0  0  0  0  0  0
    0.1708   -0.8663   -0.0406 H   0  0  0  0  0  0  0  0  0  0  0  0
   -4.6286   -0.9324   -0.1575 H   0  0  0  0  0  0  0  0  0  0  0  0
   -1.0076   -3.7569    1.3707 H   0  0  0  0  0  0  0  0  0  0  0  0
    0.3288   -3.2049    0.3525 H   0  0  0  0  0  0  0  0  0  0  0  0
   -1.0084   -4.1008   -0.3732 H   0  0  0  0  0  0  0  0  0  0  0  0
    3.0945   -2.9381    1.4390 H   0  0  0  0  0  0  0  0  0  0  0  0
    5.5995   -1.1951    1.1948 H   0  0  0  0  0  0  0  0  0  0  0  0
  1  5  1  0  0  0  0
  1  8  1  0  0  0  0
  1  9  1  0  0  0  0
  1 10  2  0  0  0  0
  2 15  1  0  0  0  0
  2 16  1  0  0  0  0
  3 13  1  0  0  0  0
  3 29  1  0  0  0  0
  4 14  1  0  0  0  0
  4 30  1  0  0  0  0
  5 17  1  0  0  0  0
  6 19  2  0  0  0  0
  7 21  2  0  0  0  0
  8 36  1  0  0  0  0
  9 37  1  0  0  0  0
 11 16  1  0  0  0  0
 11 18  1  0  0  0  0
 11 19  1  0  0  0  0
 12 19  1  0  0  0  0
 12 21  1  0  0  0  0
 12 32  1  0  0  0  0
 13 14  1  0  0  0  0
 13 16  1  0  0  0  0
 13 23  1  0  0  0  0
 14 15  1  0  0  0  0
 14 24  1  0  0  0  0
 15 17  1  0  0  0  0
 15 26  1  0  0  0  0
 16 25  1  0  0  0  0
 17 27  1  0  0  0  0
 17 28  1  0  0  0  0
 18 20  2  0  0  0  0
 18 31  1  0  0  0  0
 20 21  1  0  0  0  0
 20 22  1  0  0  0  0
 22 33  1  0  0  0  0
 22 34  1  0  0  0  0
 22 35  1  0  0  0  0
M  END
> <PUBCHEM_COMPOUND_CID>
12803287

> <PUBCHEM_CONFORMER_RMSD>
0.8

> <PUBCHEM_CONFORMER_DIVERSEORDER>
1
41
18
24
25
10
37
23
40
21
32
9
19
8
35
15
44
11
22
12
42
16
27
20
4
39
28
3
43
6
33
17
36
14
38
7
30
26
2
29
5
31
13
34

> <PUBCHEM_MMFF94_PARTIAL_CHARGES>
28
1 1.51
10 -0.7
11 -0.47
12 -0.49
13 0.28
14 0.28
15 0.28
16 0.58
17 0.28
18 -0.04
19 0.69
2 -0.56
20 -0.12
21 0.62
22 0.14
29 0.4
3 -0.68
30 0.4
31 0.15
32 0.37
36 0.5
37 0.5
4 -0.68
5 -0.55
6 -0.57
7 -0.57
8 -0.77
9 -0.77

> <PUBCHEM_EFFECTIVE_ROTOR_COUNT>
5

> <PUBCHEM_PHARMACOPHORE_FEATURES>
14
1 10 acceptor
1 12 donor
1 2 acceptor
1 3 acceptor
1 3 donor
1 4 acceptor
1 4 donor
1 6 acceptor
1 7 acceptor
1 8 acceptor
1 9 acceptor
4 1 8 9 10 anion
5 2 13 14 15 16 rings
6 11 12 18 19 20 21 rings

> <PUBCHEM_HEAVY_ATOM_COUNT>
22

> <PUBCHEM_ATOM_DEF_STEREO_COUNT>
4

> <PUBCHEM_ATOM_UDEF_STEREO_COUNT>
0

> <PUBCHEM_BOND_DEF_STEREO_COUNT>
0

> <PUBCHEM_BOND_UDEF_STEREO_COUNT>
0

> <PUBCHEM_ISOTOPIC_ATOM_COUNT>
0

> <PUBCHEM_COMPONENT_COUNT>
1

> <PUBCHEM_CACTVS_TAUTO_COUNT>
3

> <PUBCHEM_CONFORMER_ID>
00C35CD700000001

> <PUBCHEM_MMFF94_ENERGY>
19.6645

> <PUBCHEM_FEATURE_SELFOVERLAP>
71.101

> <PUBCHEM_SHAPE_FINGERPRINT>
10616163 171 17543631288826864330
1100329 8 18411141303624825817
12506688 2 18339080513920135504
12553582 1 18339939180993515006
12788726 201 18130241362389188649
13140716 1 18412830209224589153
13533116 47 17981329212073323395
138480 1 15167982936645200458
14081887 123 18267564876468230594
14251757 5 18263664947300606582
14790565 3 18050575040576372993
14866123 147 17981896233022192947
15403338 16 13996777700314249762
16752209 62 18120649137222671804
16945 1 17976539743337455061
19049666 15 18195242450230356277
19591789 44 17187295564801942374
20510252 161 18126277546125322696
20600515 1 18271253724546325892
20645477 70 17831568039945807399
20905425 154 18050576432113622022
21279426 13 18336255821984584943
21421861 104 18046622592747659161
23184049 29 18411138035054389228
23557571 272 18411978075124079802
23559900 14 18194956568158491397
314173 41 18409169926272917726
58807428 26 17622176667352567545
7364860 26 17979637058665023914
81228 2 17985282789007632484
9709674 26 18119808272831211499

> <PUBCHEM_SHAPE_MULTIPOLES>
393.81
6.92
4.64
0.92
3.45
1.03
0.03
-5.86
-0.26
-0.35
0.71
0.36
0.14
0.29

> <PUBCHEM_SHAPE_SELFOVERLAP>
808.948

> <PUBCHEM_SHAPE_VOLUME>
228.8

> <PUBCHEM_COORDINATE_TYPE>
2
5
10

$$$$
